@<TRIPOS>MOLECULE
1z04_E_F.pdb
 1014 1092 0 0 0
SMALL
GASTEIGER

@<TRIPOS>ATOM
      1  O5*      -15.6290  -44.3960   14.3970 O.3     4  T4         -0.3924
      2  C5*      -14.8280  -45.3630   13.6980 C.3     4  T4          0.0729
      3  C4*      -15.5660  -46.1210   12.5770 C.3     4  T4          0.1107
      4  O4*      -16.8410  -46.6360   13.0650 O.3     4  T4         -0.3483
      5  C3*      -15.8830  -45.2700   11.3270 C.3     4  T4          0.0982
      6  O3*      -15.4650  -45.9050   10.1100 O.3     4  T4         -0.3213
      7  C2*      -17.3960  -45.0940   11.3830 C.3     4  T4          0.0221
      8  C1*      -17.8750  -46.3460   12.1300 C.3     4  T4          0.1422
      9  N1       -19.0990  -46.1690   12.9300 N.ar    4  T4         -0.2737
     10  C2       -20.0940  -47.1240   12.9160 C.ar    4  T4          0.3313
     11  O2       -20.0460  -48.1400   12.2360 O.2     4  T4         -0.2464
     12  N3       -21.1510  -46.8510   13.7440 N.ar    4  T4         -0.2747
     13  C4       -21.2460  -45.8320   14.6580 C.ar    4  T4          0.2568
     14  O4       -22.1820  -45.8100   15.4560 O.2     4  T4         -0.2674
     15  C5       -20.1860  -44.8560   14.6000 C.ar    4  T4          0.0302
     16  C5M      -20.1680  -43.7220   15.5780 C.3     4  T4         -0.0332
     17  C6       -19.1520  -45.1040   13.7890 C.ar    4  T4          0.0199
     18 1H5*      -14.4880  -46.1150   14.4450 H       4  T4          0.0584
     19 2H5*      -13.9200  -44.8820   13.2710 H       4  T4          0.0584
     20  H4*      -14.9630  -46.9940   12.2470 H       4  T4          0.0646
     21  H3*      -15.3760  -44.2860   11.4670 H       4  T4          0.0628
     22 1H2*      -17.6140  -44.1580   11.9320 H       4  T4          0.0335
     23 2H2*      -17.8630  -45.0340   10.3850 H       4  T4          0.0335
     24  H1*      -17.9230  -47.2000   11.4110 H       4  T4          0.0840
     25  H3       -21.8710  -47.5660   13.7760 H       4  T4          0.1734
     26 1H5M      -19.6310  -44.0040   16.5110 H       4  T4          0.0280
     27 2H5M      -21.2010  -43.4170   15.8600 H       4  T4          0.0280
     28 3H5M      -19.6620  -42.8310   15.1450 H       4  T4          0.0280
     29  H6       -18.2370  -44.5060   13.8080 H       4  T4          0.0816
     30  H5T      -16.3010  -44.9410   14.8380 H       4  T4          0.2095
     31  P        -15.4220  -45.0800    8.7660 P.3     5  T5          0.2130
     32  O1P      -14.4020  -45.7040    7.8970 O.2     5  T5         -0.5172
     33  O2P      -15.1820  -43.6590    9.0880 O.3     5  T5         -0.4373
     34  O5*      -16.8340  -45.2750    8.0990 O.3     5  T5         -0.3248
     35  C5*      -17.1830  -46.6180    7.6600 C.3     5  T5          0.0836
     36  C4*      -18.6960  -46.8170    7.4930 C.3     5  T5          0.1114
     37  O4*      -19.3690  -46.5210    8.7460 O.3     5  T5         -0.3483
     38  C3*      -19.3630  -45.8650    6.4700 C.3     5  T5          0.0983
     39  O3*      -19.8600  -46.5850    5.3470 O.3     5  T5         -0.3213
     40  C2*      -20.4780  -45.1870    7.2700 C.3     5  T5          0.0221
     41  C1*      -20.6870  -46.1320    8.4440 C.3     5  T5          0.1422
     42  N1       -21.2170  -45.4460    9.6200 N.ar    5  T5         -0.2737
     43  C2       -22.3230  -45.9260   10.2680 C.ar    5  T5          0.3313
     44  O2       -22.9190  -46.9430    9.9270 O.2     5  T5         -0.2464
     45  N3       -22.7330  -45.1670   11.3240 N.ar    5  T5         -0.2747
     46  C4       -22.1770  -43.9870   11.7740 C.ar    5  T5          0.2568
     47  O4       -22.6810  -43.3810   12.7080 O.2     5  T5         -0.2674
     48  C5       -21.0010  -43.5550   11.0560 C.ar    5  T5          0.0302
     49  C5M      -20.2110  -42.3780   11.5440 C.3     5  T5         -0.0332
     50  C6       -20.5630  -44.3200   10.0580 C.ar    5  T5          0.0199
     51 1H5*      -16.8420  -47.4000    8.3840 H       5  T5          0.0591
     52 2H5*      -16.6990  -46.8300    6.6790 H       5  T5          0.0591
     53  H4*      -18.9280  -47.8680    7.2150 H       5  T5          0.0646
     54  H3*      -18.5960  -45.1180    6.1570 H       5  T5          0.0628
     55 1H2*      -20.0970  -44.1980    7.5880 H       5  T5          0.0335
     56 2H2*      -21.4330  -45.0390    6.7370 H       5  T5          0.0335
     57  H1*      -21.2600  -47.0390    8.1310 H       5  T5          0.0840
     58  H3       -23.5590  -45.5300   11.7900 H       5  T5          0.1734
     59 1H5M      -20.8690  -41.5860   11.9640 H       5  T5          0.0280
     60 2H5M      -19.6180  -41.9230   10.7180 H       5  T5          0.0280
     61 3H5M      -19.4960  -42.6910   12.3350 H       5  T5          0.0280
     62  H6       -19.5730  -44.1890    9.6030 H       5  T5          0.0816
     63  P        -20.7500  -45.9530    4.2250 P.3     6  G6          0.2130
     64  O1P      -20.4130  -46.5380    2.9230 O.2     6  G6         -0.5172
     65  O2P      -20.7420  -44.4660    4.2810 O.3     6  G6         -0.4373
     66  O5*      -22.2080  -46.3930    4.6210 O.3     6  G6         -0.3248
     67  C5*      -22.4720  -47.7780    4.9670 C.3     6  G6          0.0836
     68  C4*      -23.9300  -48.0010    5.3980 C.3     6  G6          0.1114
     69  O4*      -24.1500  -47.3870    6.7040 O.3     6  G6         -0.3484
     70  C3*      -24.9750  -47.3650    4.4510 C.3     6  G6          0.0983
     71  O3*      -26.0750  -48.2310    4.1610 O.3     6  G6         -0.3213
     72  C2*      -25.4290  -46.1360    5.2180 C.3     6  G6          0.0220
     73  C1*      -25.3290  -46.5940    6.6580 C.3     6  G6          0.1408
     74  N9       -25.1880  -45.4970    7.5980 N.ar    6  G6         -0.2878
     75  C8       -24.2500  -44.4930    7.5620 C.ar    6  G6          0.1004
     76  N7       -24.3940  -43.6060    8.5330 N.ar    6  G6         -0.2286
     77  C5       -25.5040  -44.1020    9.2380 C.ar    6  G6          0.1721
     78  C6       -26.1430  -43.5980   10.4170 C.ar    6  G6          0.2803
     79  O6       -25.7910  -42.6130   11.0390 O.2     6  G6         -0.2654
     80  N1       -27.2600  -44.3770   10.7440 N.ar    6  G6         -0.2934
     81  C2       -27.6640  -45.4980   10.0920 C.ar    6  G6          0.1950
     82  N2       -28.7330  -46.1040   10.5360 N.pl3   6  G6         -0.3289
     83  N3       -27.0600  -45.9810    9.0230 N.ar    6  G6         -0.1963
     84  C4       -25.9970  -45.2430    8.6620 C.ar    6  G6          0.1711
     85 1H5*      -21.8200  -48.1150    5.8090 H       6  G6          0.0591
     86 2H5*      -22.2740  -48.4400    4.0900 H       6  G6          0.0591
     87  H4*      -24.1470  -49.0840    5.4990 H       6  G6          0.0646
     88  H3*      -24.4470  -47.0770    3.5130 H       6  G6          0.0628
     89  H1*      -26.1860  -47.2640    6.9100 H       6  G6          0.0840
     90  H8       -23.4770  -44.4850    6.7870 H       6  G6          0.1030
     91  H1       -27.7630  -44.1050   11.5800 H       6  G6          0.1716
     92 1H2       -29.2940  -45.7330   11.2840 H       6  G6          0.1451
     93 2H2       -29.1130  -46.7800    9.9160 H       6  G6          0.1451
     94 2H2*      -26.4490  -45.7980    4.9760 H       6  G6          0.0335
     95 1H2*      -24.7090  -45.3170    5.0260 H       6  G6          0.0335
     96  P        -27.1860  -47.7740    3.1290 P.3     7  T7          0.2130
     97  O1P      -27.4080  -48.8770    2.1740 O.2     7  T7         -0.5172
     98  O2P      -26.8430  -46.4360    2.5830 O.3     7  T7         -0.4373
     99  O5*      -28.4570  -47.6080    4.0570 O.3     7  T7         -0.3248
    100  C5*      -28.8600  -48.7020    4.9170 C.3     7  T7          0.0836
    101  C4*      -30.0860  -48.3630    5.7870 C.3     7  T7          0.1114
    102  O4*      -29.7750  -47.3020    6.7470 O.3     7  T7         -0.3483
    103  C3*      -31.2900  -47.8630    4.9710 C.3     7  T7          0.0983
    104  O3*      -32.5220  -48.4140    5.4390 O.3     7  T7         -0.3213
    105  C2*      -31.2330  -46.3560    5.1400 C.3     7  T7          0.0221
    106  C1*      -30.6310  -46.1830    6.5350 C.3     7  T7          0.1422
    107  N1       -29.8080  -44.9830    6.6980 N.ar    7  T7         -0.2737
    108  C2       -29.9440  -44.2180    7.8280 C.ar    7  T7          0.3313
    109  O2       -30.7330  -44.4710    8.7270 O.2     7  T7         -0.2464
    110  N3       -29.1110  -43.1450    7.8870 N.ar    7  T7         -0.2747
    111  C4       -28.1760  -42.7430    6.9620 C.ar    7  T7          0.2568
    112  O4       -27.4610  -41.7830    7.1950 O.2     7  T7         -0.2674
    113  C5       -28.1260  -43.5660    5.7750 C.ar    7  T7          0.0302
    114  C5M      -27.1360  -43.1900    4.7150 C.3     7  T7         -0.0332
    115  C6       -28.8910  -44.6540    5.7220 C.ar    7  T7          0.0199
    116 1H5*      -28.0340  -48.9930    5.6070 H       7  T7          0.0591
    117 2H5*      -29.1290  -49.5920    4.2990 H       7  T7          0.0591
    118  H4*      -30.4030  -49.2610    6.3570 H       7  T7          0.0646
    119  H3*      -31.1160  -48.1400    3.9030 H       7  T7          0.0628
    120 1H2*      -30.5700  -45.9570    4.3480 H       7  T7          0.0335
    121 2H2*      -32.2070  -45.8520    5.0450 H       7  T7          0.0335
    122  H1*      -31.4590  -46.2670    7.2840 H       7  T7          0.0840
    123  H3       -29.2110  -42.5870    8.7300 H       7  T7          0.1734
    124 1H5M      -26.0980  -43.3580    5.0770 H       7  T7          0.0280
    125 2H5M      -27.2340  -42.1170    4.4430 H       7  T7          0.0280
    126 3H5M      -27.2820  -43.7950    3.7910 H       7  T7          0.0280
    127  H6       -28.7490  -45.4310    4.9590 H       7  T7          0.0816
    128  P        -33.8850  -48.0860    4.7150 P.3     8  G8          0.2130
    129  O1P      -34.6900  -49.3230    4.6690 O.3     8  G8         -0.4373
    130  O2P      -33.6270  -47.3920    3.4360 O.2     8  G8         -0.5172
    131  O5*      -34.5690  -47.0620    5.7190 O.3     8  G8         -0.3248
    132  C5*      -34.7840  -47.4990    7.0880 C.3     8  G8          0.0836
    133  C4*      -35.3850  -46.3980    7.9810 C.3     8  G8          0.1114
    134  O4*      -34.3850  -45.3590    8.2200 O.3     8  G8         -0.3484
    135  C3*      -36.6010  -45.6890    7.3380 C.3     8  G8          0.0983
    136  O3*      -37.7490  -45.5360    8.1610 O.3     8  G8         -0.3213
    137  C2*      -36.0530  -44.3490    6.8780 C.3     8  G8          0.0220
    138  C1*      -34.8770  -44.0790    7.8260 C.3     8  G8          0.1408
    139  N9       -33.7710  -43.3410    7.2190 N.ar    8  G8         -0.2878
    140  C8       -33.1910  -43.6190    6.0060 C.ar    8  G8          0.1004
    141  N7       -32.2300  -42.7810    5.6890 N.ar    8  G8         -0.2286
    142  C5       -32.1760  -41.9070    6.7710 C.ar    8  G8          0.1721
    143  C6       -31.3550  -40.7720    7.0170 C.ar    8  G8          0.2803
    144  O6       -30.4440  -40.3330    6.2910 O.2     8  G8         -0.2654
    145  N1       -31.6780  -40.1410    8.2030 N.ar    8  G8         -0.2934
    146  C2       -32.6520  -40.5570    9.0690 C.ar    8  G8          0.1950
    147  N2       -32.8610  -39.8120   10.1140 N.pl3   8  G8         -0.3289
    148  N3       -33.3920  -41.6230    8.8730 N.ar    8  G8         -0.1963
    149  C4       -33.1220  -42.2450    7.7180 C.ar    8  G8          0.1711
    150 1H5*      -33.8290  -47.8280    7.5630 H       8  G8          0.0591
    151 2H5*      -35.4920  -48.3620    7.1020 H       8  G8          0.0591
    152  H4*      -35.6740  -46.8330    8.9610 H       8  G8          0.0646
    153  H3*      -36.8930  -46.2980    6.4520 H       8  G8          0.0628
    154  H1*      -35.2330  -43.5790    8.7540 H       8  G8          0.0840
    155  H8       -33.5290  -44.4680    5.4070 H       8  G8          0.1030
    156  H1       -31.1250  -39.3460    8.4730 H       8  G8          0.1716
    157 1H2       -32.2630  -39.0630   10.4090 H       8  G8          0.1451
    158 2H2       -33.6010  -40.1240   10.7020 H       8  G8          0.1451
    159 2H2*      -36.8140  -43.5450    6.9240 H       8  G8          0.0335
    160 1H2*      -35.6960  -44.4680    5.8330 H       8  G8          0.0335
    161  P        -37.9490  -44.9900    9.6160 P.3     9  A9          0.2130
    162  O1P      -36.9880  -45.6200   10.5460 O.3     9  A9         -0.4373
    163  O2P      -39.3760  -45.1430    9.9610 O.2     9  A9         -0.5172
    164  O5*      -37.6300  -43.4310    9.4870 O.3     9  A9         -0.3248
    165  C5*      -37.1780  -42.7540   10.6910 C.3     9  A9          0.0836
    166  C4*      -37.3320  -41.2210   10.6320 C.3     9  A9          0.1114
    167  O4*      -36.2770  -40.6000    9.8330 O.3     9  A9         -0.3484
    168  C3*      -38.6600  -40.7170   10.0380 C.3     9  A9          0.0983
    169  O3*      -39.3160  -39.8000   10.9190 O.3     9  A9         -0.3213
    170  C2*      -38.2460  -40.0630    8.7180 C.3     9  A9          0.0220
    171  C1*      -36.8300  -39.5750    9.0140 C.3     9  A9          0.1408
    172  N9       -35.9590  -39.4720    7.8500 N.ar    9  A9         -0.2879
    173  C8       -35.8680  -40.3890    6.8340 C.ar    9  A9          0.1003
    174  N7       -34.9630  -40.0920    5.9290 N.ar    9  A9         -0.2306
    175  C5       -34.4080  -38.9030    6.4030 C.ar    9  A9          0.1473
    176  C6       -33.3250  -38.1050    5.9600 C.ar    9  A9          0.1472
    177  N6       -32.5820  -38.3630    4.8750 N.pl3   9  A9         -0.3413
    178  N1       -32.9900  -37.0110    6.6880 N.ar    9  A9         -0.2188
    179  C2       -33.6960  -36.7500    7.7930 C.ar    9  A9          0.1205
    180  N3       -34.7000  -37.4370    8.3280 N.ar    9  A9         -0.2159
    181  C4       -35.0080  -38.5190    7.5890 C.ar    9  A9          0.1673
    182 1H5*      -36.1130  -43.0090   10.9000 H       9  A9          0.0591
    183 2H5*      -37.7840  -43.0780   11.5740 H       9  A9          0.0591
    184  H4*      -37.2290  -40.8020   11.6550 H       9  A9          0.0646
    185  H3*      -39.3050  -41.6060    9.8400 H       9  A9          0.0628
    186  H1*      -36.8560  -38.6330    9.6130 H       9  A9          0.0840
    187  H8       -36.4980  -41.2810    6.8250 H       9  A9          0.1030
    188 1H6       -31.8250  -37.7500    4.6380 H       9  A9          0.1438
    189 2H6       -32.8640  -39.0620    4.2220 H       9  A9          0.1438
    190  H2       -33.3920  -35.8540    8.3480 H       9  A9          0.1048
    191 2H2*      -38.9070  -39.2370    8.3950 H       9  A9          0.0335
    192 1H2*      -38.2440  -40.8540    7.9380 H       9  A9          0.0335
    193  P        -40.7640  -39.2690   10.5850 P.3    10  G10         0.2130
    194  O1P      -41.4970  -39.0700   11.8560 O.3    10  G10        -0.4373
    195  O2P      -41.3750  -40.1230    9.5430 O.2    10  G10        -0.5172
    196  O5*      -40.4290  -37.8600    9.9490 O.3    10  G10        -0.3248
    197  C5*      -39.6610  -36.8940   10.7070 C.3    10  G10         0.0836
    198  C4*      -39.1580  -35.7360    9.8290 C.3    10  G10         0.1114
    199  O4*      -38.2240  -36.2270    8.8280 O.3    10  G10        -0.3484
    200  C3*      -40.2570  -35.0530    8.9820 C.3    10  G10         0.0983
    201  O3*      -40.4960  -33.7110    9.4200 O.3    10  G10        -0.3213
    202  C2*      -39.6960  -35.0810    7.5520 C.3    10  G10         0.0220
    203  C1*      -38.2060  -35.2560    7.8000 C.3    10  G10         0.1408
    204  N9       -37.4830  -35.8120    6.6620 N.ar   10  G10        -0.2878
    205  C8       -37.8000  -36.9830    6.0210 C.ar   10  G10         0.1004
    206  N7       -37.0150  -37.2420    5.0030 N.ar   10  G10        -0.2286
    207  C5       -36.1150  -36.1740    4.9900 C.ar   10  G10         0.1721
    208  C6       -35.0020  -35.8940    4.1430 C.ar   10  G10         0.2803
    209  O6       -34.5810  -36.5680    3.1940 O.2    10  G10        -0.2654
    210  N1       -34.3760  -34.7110    4.4920 N.ar   10  G10        -0.2934
    211  C2       -34.7420  -33.9020    5.5240 C.ar   10  G10         0.1950
    212  N2       -34.0090  -32.8300    5.7020 N.pl3  10  G10        -0.3289
    213  N3       -35.7700  -34.1370    6.3210 N.ar   10  G10        -0.1963
    214  C4       -36.3960  -35.2850    6.0150 C.ar   10  G10         0.1711
    215 1H5*      -38.7690  -37.3560   11.1980 H      10  G10         0.0591
    216 2H5*      -40.3070  -36.4620   11.5060 H      10  G10         0.0591
    217  H4*      -38.6380  -34.9670   10.4370 H      10  G10         0.0646
    218  H3*      -41.1790  -35.6780    9.0510 H      10  G10         0.0628
    219  H1*      -37.7430  -34.3210    8.1960 H      10  G10         0.0840
    220  H8       -38.6160  -37.6130    6.3810 H      10  G10         0.1030
    221  H1       -33.5690  -34.4700    3.9410 H      10  G10         0.1716
    222 1H2       -33.2360  -32.6090    5.1080 H      10  G10         0.1451
    223 2H2       -34.2330  -32.2680    6.4890 H      10  G10         0.1451
    224 2H2*      -39.9040  -34.1610    6.9750 H      10  G10         0.0335
    225 1H2*      -40.1340  -35.9550    7.0250 H      10  G10         0.0335
    226  P        -41.7420  -32.9410    8.8080 P.3    11  C11         0.2130
    227  O1P      -42.4580  -32.2830    9.9220 O.3    11  C11        -0.4373
    228  O2P      -42.4900  -33.8580    7.9180 O.2    11  C11        -0.5172
    229  O5*      -41.0020  -31.8480    7.9260 O.3    11  C11        -0.3248
    230  C5*      -40.4760  -30.6840    8.6020 C.3    11  C11         0.0836
    231  C4*      -39.7340  -29.7410    7.6430 C.3    11  C11         0.1114
    232  O4*      -38.5170  -30.3740    7.1550 O.3    11  C11        -0.3483
    233  C3*      -40.5130  -29.3440    6.3690 C.3    11  C11         0.0983
    234  O3*      -41.3030  -28.1650    6.5840 O.3    11  C11        -0.3213
    235  C2*      -39.3880  -29.0250    5.4020 C.3    11  C11         0.0221
    236  C1*      -38.2790  -30.0240    5.7860 C.3    11  C11         0.1423
    237  N1       -38.2040  -31.2640    4.9660 N.ar   11  C11        -0.2725
    238  C2       -37.1550  -31.4810    4.0720 C.ar   11  C11         0.3521
    239  O2       -36.2610  -30.6330    3.9460 O.2    11  C11        -0.2444
    240  N3       -37.1200  -32.6200    3.3390 N.ar   11  C11        -0.1783
    241  C4       -38.1190  -33.5050    3.4310 C.ar   11  C11         0.1230
    242  N4       -38.0500  -34.5980    2.6800 N.pl3  11  C11        -0.3430
    243  C5       -39.2270  -33.2920    4.3000 C.ar   11  C11        -0.0056
    244  C6       -39.2330  -32.1710    5.0410 C.ar   11  C11         0.0151
    245 1H5*      -39.7700  -30.9910    9.4100 H      11  C11         0.0591
    246 2H5*      -41.3170  -30.1150    9.0630 H      11  C11         0.0591
    247  H4*      -39.4160  -28.8210    8.1730 H      11  C11         0.0646
    248  H3*      -41.0890  -30.2350    6.0240 H      11  C11         0.0628
    249  H1*      -37.3030  -29.4860    5.7710 H      11  C11         0.0840
    250 1H4       -37.2430  -34.6860    2.0820 H      11  C11         0.1437
    251 2H4       -38.8280  -35.1910    2.5240 H      11  C11         0.1437
    252  H5       -40.0250  -34.0280    4.3530 H      11  C11         0.0666
    253  H6       -40.0140  -31.9530    5.7760 H      11  C11         0.0812
    254 2H2*      -38.9980  -27.9970    5.5750 H      11  C11         0.0335
    255 1H2*      -39.7050  -29.1270    4.3450 H      11  C11         0.0335
    256  P        -42.8840  -28.2560    6.6210 P.3    12  G12         0.2130
    257  O1P      -43.2100  -27.4710    7.8400 O.3    12  G12        -0.4373
    258  O2P      -43.3740  -29.6270    6.5060 O.2    12  G12        -0.5172
    259  O5*      -43.3240  -27.4670    5.3550 O.3    12  G12        -0.3248
    260  C5*      -43.0900  -26.0660    5.1450 C.3    12  G12         0.0836
    261  C4*      -43.1050  -25.7110    3.6480 C.3    12  G12         0.1114
    262  O4*      -42.1210  -26.5040    2.9100 O.3    12  G12        -0.3484
    263  C3*      -44.4640  -25.9970    2.9870 C.3    12  G12         0.0983
    264  O3*      -44.8370  -24.9710    2.0590 O.3    12  G12        -0.3213
    265  C2*      -44.2520  -27.3600    2.3340 C.3    12  G12         0.0220
    266  C1*      -42.7750  -27.3220    1.9360 C.3    12  G12         0.1408
    267  N9       -42.0960  -28.6210    1.8890 N.ar   12  G12        -0.2878
    268  C8       -42.1680  -29.5990    2.8560 C.ar   12  G12         0.1004
    269  N7       -41.4860  -30.6790    2.5380 N.ar   12  G12        -0.2286
    270  C5       -40.9050  -30.3740    1.3060 C.ar   12  G12         0.1721
    271  C6       -40.0540  -31.1460    0.4590 C.ar   12  G12         0.2803
    272  O6       -39.6260  -32.2880    0.6730 O.2    12  G12        -0.2654
    273  N1       -39.7160  -30.4630   -0.6990 N.ar   12  G12        -0.2934
    274  C2       -40.1370  -29.1960   -1.0140 C.ar   12  G12         0.1950
    275  N2       -39.7170  -28.6990   -2.1490 N.pl3  12  G12        -0.3289
    276  N3       -40.9160  -28.4670   -0.2360 N.ar   12  G12        -0.1963
    277  C4       -41.2680  -29.1050    0.8980 C.ar   12  G12         0.1711
    278 1H5*      -42.1050  -25.7470    5.5560 H      12  G12         0.0591
    279 2H5*      -43.8980  -25.4800    5.6440 H      12  G12         0.0591
    280  H4*      -42.8640  -24.6370    3.5100 H      12  G12         0.0646
    281  H3*      -45.2230  -26.0730    3.8030 H      12  G12         0.0628
    282  H1*      -42.7100  -26.7950    0.9620 H      12  G12         0.0840
    283  H8       -42.7360  -29.4450    3.7810 H      12  G12         0.1030
    284  H1       -39.1620  -30.9700   -1.3650 H      12  G12         0.1716
    285 1H2       -39.2350  -29.2460   -2.8390 H      12  G12         0.1451
    286 2H2       -40.0450  -27.7800   -2.3600 H      12  G12         0.1451
    287 2H2*      -44.9130  -27.5760    1.4800 H      12  G12         0.0335
    288 1H2*      -44.4140  -28.1340    3.1140 H      12  G12         0.0335
    289  P        -46.1790  -25.0520    1.2560 P.3    13  C13         0.2130
    290  O1P      -46.6900  -23.6800    1.0230 O.2    13  C13        -0.5172
    291  O2P      -47.0970  -26.0290    1.8780 O.3    13  C13        -0.4373
    292  O5*      -45.7050  -25.6150   -0.1360 O.3    13  C13        -0.3248
    293  C5*      -44.8980  -24.6940   -0.9230 C.3    13  C13         0.0836
    294  C4*      -44.3280  -25.3450   -2.1780 C.3    13  C13         0.1114
    295  O4*      -43.5670  -26.5450   -1.8520 O.3    13  C13        -0.3483
    296  C3*      -45.4110  -25.7600   -3.1930 C.3    13  C13         0.0983
    297  O3*      -45.2210  -25.1080   -4.4520 O.3    13  C13        -0.3213
    298  C2*      -45.2790  -27.2820   -3.2740 C.3    13  C13         0.0221
    299  C1*      -43.8530  -27.5610   -2.8050 C.3    13  C13         0.1423
    300  N1       -43.6860  -28.8770   -2.1560 N.ar   13  C13        -0.2725
    301  C2       -43.0210  -29.9090   -2.7980 C.ar   13  C13         0.3521
    302  O2       -42.5550  -29.7210   -3.9350 O.2    13  C13        -0.2444
    303  N3       -42.8780  -31.0980   -2.1940 N.ar   13  C13        -0.1783
    304  C4       -43.4310  -31.3180   -0.9940 C.ar   13  C13         0.1230
    305  N4       -43.2270  -32.5040   -0.4410 N.pl3  13  C13        -0.3430
    306  C5       -44.1840  -30.3060   -0.3330 C.ar   13  C13        -0.0056
    307  C6       -44.2980  -29.1140   -0.9450 C.ar   13  C13         0.0151
    308 1H5*      -44.0310  -24.3040   -0.3370 H      13  C13         0.0591
    309 2H5*      -45.5100  -23.8200   -1.2570 H      13  C13         0.0591
    310  H4*      -43.6250  -24.6500   -2.6810 H      13  C13         0.0646
    311  H3*      -46.4000  -25.4880   -2.7500 H      13  C13         0.0628
    312  H1*      -43.1430  -27.3970   -3.6510 H      13  C13         0.0840
    313 1H4       -42.6700  -33.1670   -0.9520 H      13  C13         0.1437
    314 2H4       -43.5520  -32.7420    0.4670 H      13  C13         0.1437
    315  H5       -44.6340  -30.5220    0.6330 H      13  C13         0.0666
    316  H6       -44.8150  -28.2520   -0.5130 H      13  C13         0.0812
    317 2H2*      -45.4270  -27.6890   -4.2910 H      13  C13         0.0335
    318 1H2*      -46.0250  -27.7360   -2.5870 H      13  C13         0.0335
    319  P        -46.1830  -25.3400   -5.6740 P.3    14  T14         0.2130
    320  O1P      -46.3130  -24.0640   -6.4180 O.2    14  T14        -0.5172
    321  O2P      -47.4420  -26.0190   -5.2920 O.3    14  T14        -0.4373
    322  O5*      -45.3240  -26.3080   -6.5580 O.3    14  T14        -0.3248
    323  C5*      -43.9410  -25.9650   -6.8400 C.3    14  T14         0.0836
    324  C4*      -43.3490  -26.8370   -7.9520 C.3    14  T14         0.1114
    325  O4*      -43.1460  -28.1970   -7.4760 O.3    14  T14        -0.3483
    326  C3*      -44.2750  -26.9420   -9.1670 C.3    14  T14         0.0983
    327  O3*      -43.5560  -26.8190  -10.3910 O.3    14  T14        -0.3213
    328  C2*      -44.9310  -28.3080   -9.0120 C.3    14  T14         0.0221
    329  C1*      -43.8780  -29.1260   -8.2640 C.3    14  T14         0.1422
    330  N1       -44.4230  -30.1210   -7.3250 N.ar   14  T14        -0.2737
    331  C2       -43.9680  -31.4130   -7.3630 C.ar   14  T14         0.3313
    332  O2       -43.1380  -31.8190   -8.1700 O.2    14  T14        -0.2464
    333  N3       -44.5210  -32.2390   -6.4180 N.ar   14  T14        -0.2747
    334  C4       -45.3910  -31.8820   -5.4240 C.ar   14  T14         0.2568
    335  O4       -45.7050  -32.7170   -4.5600 O.2    14  T14        -0.2674
    336  C5       -45.8750  -30.5340   -5.4680 C.ar   14  T14         0.0302
    337  C5M      -46.8620  -30.0830   -4.4420 C.3    14  T14        -0.0332
    338  C6       -45.3260  -29.7050   -6.3760 C.ar   14  T14         0.0199
    339 1H5*      -43.3060  -26.0820   -5.9300 H      14  T14         0.0591
    340 2H5*      -43.8600  -24.9080   -7.1900 H      14  T14         0.0591
    341  H4*      -42.3640  -26.4380   -8.2800 H      14  T14         0.0646
    342  H3*      -45.0380  -26.1340   -9.0800 H      14  T14         0.0628
    343 1H2*      -45.8520  -28.1780   -8.4100 H      14  T14         0.0335
    344 2H2*      -45.1990  -28.7740   -9.9720 H      14  T14         0.0335
    345  H1*      -43.1560  -29.5490   -9.0050 H      14  T14         0.0840
    346  H3       -44.1420  -33.1780   -6.3970 H      14  T14         0.1734
    347 1H5M      -47.2990  -29.0920   -4.7060 H      14  T14         0.0280
    348 2H5M      -46.3850  -29.9930   -3.4400 H      14  T14         0.0280
    349 3H5M      -47.7040  -30.8070   -4.3600 H      14  T14         0.0280
    350  H6       -45.4950  -28.6270   -6.3490 H      14  T14         0.0816
    351  P        -44.3330  -26.7520  -11.7570 P.3    15  C15         0.2130
    352  O1P      -43.6250  -25.7650  -12.5990 O.2    15  C15        -0.5172
    353  O2P      -45.7550  -26.4430  -11.4630 O.3    15  C15        -0.4373
    354  O5*      -44.1730  -28.2360  -12.3250 O.3    15  C15        -0.3248
    355  C5*      -42.8290  -28.7960  -12.3980 C.3    15  C15         0.0836
    356  C4*      -42.7630  -30.2450  -12.9380 C.3    15  C15         0.1114
    357  O4*      -43.1530  -31.1920  -11.8970 O.3    15  C15        -0.3483
    358  C3*      -43.6760  -30.5390  -14.1440 C.3    15  C15         0.0983
    359  O3*      -43.0360  -31.3360  -15.1480 O.3    15  C15        -0.3213
    360  C2*      -44.8520  -31.2670  -13.5210 C.3    15  C15         0.0221
    361  C1*      -44.2090  -32.0340  -12.3550 C.3    15  C15         0.1423
    362  N1       -45.0910  -32.2800  -11.1990 N.ar   15  C15        -0.2725
    363  C2       -45.1480  -33.5020  -10.5210 C.ar   15  C15         0.3521
    364  O2       -44.4440  -34.4480  -10.8940 O.2    15  C15        -0.2444
    365  N3       -46.0030  -33.6460   -9.4780 N.ar   15  C15        -0.1783
    366  C4       -46.7120  -32.6010   -9.0530 C.ar   15  C15         0.1230
    367  N4       -47.5250  -32.7840   -8.0240 N.pl3  15  C15        -0.3430
    368  C5       -46.6210  -31.3220   -9.6720 C.ar   15  C15        -0.0056
    369  C6       -45.7900  -31.2060  -10.7200 C.ar   15  C15         0.0151
    370 1H5*      -42.3370  -28.7990  -11.3950 H      15  C15         0.0591
    371 2H5*      -42.2030  -28.1740  -13.0780 H      15  C15         0.0591
    372  H4*      -41.7180  -30.4900  -13.2230 H      15  C15         0.0646
    373  H3*      -43.9990  -29.5570  -14.5650 H      15  C15         0.0628
    374  H1*      -43.7400  -32.9690  -12.7460 H      15  C15         0.0840
    375 1H4       -47.5390  -33.6870   -7.5940 H      15  C15         0.1437
    376 2H4       -47.9900  -32.0200   -7.5690 H      15  C15         0.1437
    377  H5       -47.1800  -30.4870   -9.2600 H      15  C15         0.0666
    378  H6       -45.5980  -30.2530  -11.2300 H      15  C15         0.0812
    379 2H2*      -45.3830  -31.9320  -14.2190 H      15  C15         0.0335
    380 1H2*      -45.5680  -30.5000  -13.1730 H      15  C15         0.0335
    381  P        -43.7680  -31.6270  -16.5210 P.3    16  A16         0.2130
    382  O1P      -42.7650  -31.5660  -17.6080 O.2    16  A16        -0.5172
    383  O2P      -44.9580  -30.7550  -16.6390 O.3    16  A16        -0.4373
    384  O5*      -44.2400  -33.1360  -16.3400 O.3    16  A16        -0.3248
    385  C5*      -43.2730  -34.1980  -16.5790 C.3    16  A16         0.0836
    386  C4*      -43.6250  -35.5350  -15.8950 C.3    16  A16         0.1114
    387  O4*      -43.9010  -35.3420  -14.4740 O.3    16  A16        -0.3484
    388  C3*      -44.8650  -36.2560  -16.4520 C.3    16  A16         0.0983
    389  O3*      -44.4950  -37.1130  -17.5420 O.3    16  A16        -0.3213
    390  C2*      -45.2680  -37.0840  -15.2500 C.3    16  A16         0.0220
    391  C1*      -44.9620  -36.1920  -14.0610 C.3    16  A16         0.1408
    392  N9       -46.0700  -35.3700  -13.6180 N.ar   16  A16        -0.2879
    393  C8       -46.5290  -34.1810  -14.1350 C.ar   16  A16         0.1003
    394  N7       -47.5490  -33.6740  -13.4610 N.ar   16  A16        -0.2306
    395  C5       -47.7450  -34.6060  -12.4450 C.ar   16  A16         0.1473
    396  C6       -48.6420  -34.6590  -11.3580 C.ar   16  A16         0.1472
    397  N6       -49.4820  -33.6770  -11.0060 N.pl3  16  A16        -0.3413
    398  N1       -48.6480  -35.7630  -10.5850 N.ar   16  A16        -0.2188
    399  C2       -47.7880  -36.7480  -10.8700 C.ar   16  A16         0.1205
    400  N3       -46.8310  -36.7710  -11.7910 N.ar   16  A16        -0.2159
    401  C4       -46.8640  -35.6620  -12.5530 C.ar   16  A16         0.1673
    402 1H5*      -42.2580  -33.9130  -16.2100 H      16  A16         0.0591
    403 2H5*      -43.1920  -34.3890  -17.6740 H      16  A16         0.0591
    404  H4*      -42.7730  -36.2430  -15.9670 H      16  A16         0.0646
    405  H3*      -45.6140  -35.4780  -16.7290 H      16  A16         0.0628
    406  H1*      -44.5860  -36.8150  -13.2140 H      16  A16         0.0840
    407  H8       -46.0570  -33.7300  -15.0110 H      16  A16         0.1030
    408 1H6       -50.0830  -33.8630  -10.2240 H      16  A16         0.1438
    409 2H6       -49.3500  -32.7530  -11.3340 H      16  A16         0.1438
    410  H2       -47.8330  -37.6300  -10.2190 H      16  A16         0.1048
    411 2H2*      -44.6230  -37.9840  -15.1680 H      16  A16         0.0335
    412 1H2*      -46.3160  -37.4160  -15.2940 H      16  A16         0.0335
    413  P        -45.6400  -37.7300  -18.4500 P.3    17  C17         0.2130
    414  O1P      -45.0410  -38.2520  -19.6950 O.2    17  C17        -0.5172
    415  O2P      -46.7390  -36.7440  -18.5540 O.3    17  C17        -0.4373
    416  O5*      -46.2150  -38.9380  -17.6150 O.3    17  C17        -0.3248
    417  C5*      -45.3930  -39.9670  -17.0300 C.3    17  C17         0.0836
    418  C4*      -46.1690  -40.7950  -15.9840 C.3    17  C17         0.1114
    419  O4*      -46.7840  -39.9280  -14.9660 O.3    17  C17        -0.3483
    420  C3*      -47.3250  -41.5670  -16.6570 C.3    17  C17         0.0983
    421  O3*      -47.3840  -42.9650  -16.4080 O.3    17  C17        -0.3213
    422  C2*      -48.5800  -40.8350  -16.2040 C.3    17  C17         0.0221
    423  C1*      -48.1930  -40.1640  -14.8760 C.3    17  C17         0.1423
    424  N1       -48.8590  -38.8630  -14.6370 N.ar   17  C17        -0.2725
    425  C2       -49.6370  -38.6060  -13.5010 C.ar   17  C17         0.3521
    426  O2       -49.7950  -39.4890  -12.6480 O.2    17  C17        -0.2444
    427  N3       -50.2240  -37.3930  -13.3490 N.ar   17  C17        -0.1783
    428  C4       -50.0560  -36.4580  -14.2850 C.ar   17  C17         0.1230
    429  N4       -50.6080  -35.2680  -14.0740 N.pl3  17  C17        -0.3430
    430  C5       -49.2920  -36.6890  -15.4630 C.ar   17  C17        -0.0056
    431  C6       -48.7250  -37.8980  -15.6030 C.ar   17  C17         0.0151
    432 1H5*      -44.4920  -39.5430  -16.5330 H      17  C17         0.0591
    433 2H5*      -45.0360  -40.6570  -17.8290 H      17  C17         0.0591
    434  H4*      -45.4870  -41.5060  -15.4750 H      17  C17         0.0646
    435  H3*      -47.2080  -41.4210  -17.7550 H      17  C17         0.0628
    436  H1*      -48.3300  -40.8790  -14.0340 H      17  C17         0.0840
    437 1H4       -51.1820  -35.1770  -13.2600 H      17  C17         0.1437
    438 2H4       -50.3900  -34.4910  -14.6540 H      17  C17         0.1437
    439  H5       -49.1610  -35.9010  -16.1990 H      17  C17         0.0666
    440  H6       -48.0770  -38.1510  -16.4550 H      17  C17         0.0812
    441 2H2*      -49.4260  -41.5270  -16.0480 H      17  C17         0.0335
    442 1H2*      -48.8420  -40.0830  -16.9740 H      17  C17         0.0335
    443  P        -47.3230  -43.8270  -15.0990 P.3    18  A18         0.2130
    444  O1P      -46.0850  -43.5340  -14.3440 O.3    18  A18        -0.4373
    445  O2P      -47.5310  -45.2380  -15.4900 O.2    18  A18        -0.5172
    446  O5*      -48.5820  -43.3240  -14.2970 O.3    18  A18        -0.3248
    447  C5*      -49.6820  -44.1440  -13.8620 C.3    18  A18         0.0836
    448  C4*      -51.0660  -43.6670  -14.3610 C.3    18  A18         0.1114
    449  O4*      -51.2320  -42.2240  -14.2970 O.3    18  A18        -0.3484
    450  C3*      -51.3420  -43.9710  -15.8530 C.3    18  A18         0.0983
    451  O3*      -52.1120  -45.1560  -16.0190 O.3    18  A18        -0.3213
    452  C2*      -52.0090  -42.6760  -16.3620 C.3    18  A18         0.0220
    453  C1*      -52.3810  -41.9540  -15.0590 C.3    18  A18         0.1408
    454  N9       -52.5260  -40.5050  -15.1710 N.ar   18  A18        -0.2879
    455  C8       -51.9660  -39.7120  -16.1440 C.ar   18  A18         0.1003
    456  N7       -52.2710  -38.4410  -16.0460 N.ar   18  A18        -0.2306
    457  C5       -53.0910  -38.3960  -14.9130 C.ar   18  A18         0.1473
    458  C6       -53.7800  -37.3370  -14.2790 C.ar   18  A18         0.1472
    459  N6       -53.7560  -36.0780  -14.7440 N.pl3  18  A18        -0.3413
    460  N1       -54.5440  -37.6110  -13.1960 N.ar   18  A18        -0.2188
    461  C2       -54.6000  -38.8830  -12.7800 C.ar   18  A18         0.1205
    462  N3       -54.0100  -39.9660  -13.2930 N.ar   18  A18        -0.2159
    463  C4       -53.2490  -39.6530  -14.3580 C.ar   18  A18         0.1673
    464 1H5*      -49.7040  -44.1130  -12.7520 H      18  A18         0.0591
    465 2H5*      -49.5640  -45.2140  -14.1580 H      18  A18         0.0591
    466  H4*      -51.8640  -44.1330  -13.7550 H      18  A18         0.0646
    467  H3*      -50.3490  -44.1010  -16.3430 H      18  A18         0.0628
    468  H1*      -53.2510  -42.4300  -14.5540 H      18  A18         0.0840
    469  H8       -51.3160  -40.1300  -16.9160 H      18  A18         0.1030
    470 1H6       -53.4680  -35.9150  -15.6830 H      18  A18         0.1438
    471 2H6       -54.3720  -35.4100  -14.3240 H      18  A18         0.1438
    472  H2       -55.2260  -39.0640  -11.9000 H      18  A18         0.1048
    473 2H2*      -52.8810  -42.8010  -17.0210 H      18  A18         0.0335
    474 1H2*      -51.2410  -42.1250  -16.9360 H      18  A18         0.0335
    475  P        -53.5610  -45.4330  -16.5330 P.3    19  A19         0.2130
    476  O1P      -53.8730  -46.8680  -16.3670 O.3    19  A19        -0.4373
    477  O2P      -53.7550  -44.8350  -17.8690 O.2    19  A19        -0.5172
    478  O5*      -54.4680  -44.6210  -15.5230 O.3    19  A19        -0.3248
    479  C5*      -54.6450  -45.0870  -14.1640 C.3    19  A19         0.0835
    480  C4*      -55.9370  -44.5450  -13.5400 C.3    19  A19         0.1107
    481  O4*      -55.9550  -43.0850  -13.5530 O.3    19  A19        -0.3484
    482  C3*      -57.1740  -44.9840  -14.3340 C.3    19  A19         0.0877
    483  O3*      -58.2930  -45.3840  -13.5430 O.3    19  A19        -0.3890
    484  C2*      -57.5290  -43.7790  -15.1740 C.3    19  A19         0.0213
    485  C1*      -57.0650  -42.6090  -14.3040 C.3    19  A19         0.1408
    486  N9       -56.6190  -41.4590  -15.0650 N.ar   19  A19        -0.2879
    487  C8       -55.7350  -41.4510  -16.1190 C.ar   19  A19         0.1003
    488  N7       -55.5610  -40.2510  -16.6410 N.ar   19  A19        -0.2306
    489  C5       -56.3810  -39.4300  -15.8570 C.ar   19  A19         0.1473
    490  C6       -56.6770  -38.0440  -15.8910 C.ar   19  A19         0.1472
    491  N6       -56.1870  -37.1920  -16.8010 N.pl3  19  A19        -0.3413
    492  N1       -57.5110  -37.5400  -14.9510 N.ar   19  A19        -0.2188
    493  C2       -58.0020  -38.3730  -14.0270 C.ar   19  A19         0.1205
    494  N3       -57.8750  -39.7000  -13.9480 N.ar   19  A19        -0.2159
    495  C4       -57.0160  -40.1640  -14.8750 C.ar   19  A19         0.1673
    496 1H5*      -53.7920  -44.7550  -13.5350 H      19  A19         0.0591
    497 2H5*      -54.6920  -46.2030  -14.1080 H      19  A19         0.0591
    498  H4*      -56.0430  -44.8900  -12.4910 H      19  A19         0.0646
    499  H3*      -56.8540  -45.8270  -14.9920 H      19  A19         0.0621
    500  H3T      -59.0710  -45.4390  -14.1010 H      19  A19         0.2099
    501  H1*      -57.8530  -42.3380  -13.5620 H      19  A19         0.0840
    502  H8       -55.2390  -42.3690  -16.4520 H      19  A19         0.1030
    503 1H6       -56.4520  -36.2240  -16.7530 H      19  A19         0.1438
    504 2H6       -55.5950  -37.4970  -17.5370 H      19  A19         0.1438
    505  H2       -58.6610  -37.9100  -13.2780 H      19  A19         0.1048
    506 2H2*      -58.6060  -43.7040  -15.4130 H      19  A19         0.0335
    507 1H2*      -56.9450  -43.8300  -16.1200 H      19  A19         0.0335
    508  O5*      -62.2660  -29.7240  -15.4740 O.3     4  T4         -0.3924
    509  C5*      -63.4170  -30.5010  -15.0990 C.3     4  T4          0.0729
    510  C4*      -63.2110  -31.5030  -13.9460 C.3     4  T4          0.1107
    511  O4*      -62.4390  -32.6550  -14.4080 O.3     4  T4         -0.3483
    512  C3*      -62.4940  -30.9650  -12.6920 C.3     4  T4          0.0982
    513  O3*      -63.2030  -31.3090  -11.4970 O.3     4  T4         -0.3213
    514  C2*      -61.1110  -31.6090  -12.7600 C.3     4  T4          0.0221
    515  C1*      -61.3490  -32.9160  -13.5230 C.3     4  T4          0.1422
    516  N1       -60.2140  -33.3430  -14.3590 N.ar    4  T4         -0.2737
    517  C2       -59.7000  -34.6100  -14.2460 C.ar    4  T4          0.3313
    518  O2       -60.1390  -35.4440  -13.4620 O.2     4  T4         -0.2464
    519  N3       -58.6570  -34.8820  -15.0810 N.ar    4  T4         -0.2747
    520  C4       -58.1370  -34.0670  -16.0590 C.ar    4  T4          0.2568
    521  O4       -57.2310  -34.4770  -16.7710 O.2     4  T4         -0.2674
    522  C5       -58.7410  -32.7540  -16.1400 C.ar    4  T4          0.0302
    523  C5M      -58.3700  -31.8470  -17.2740 C.3     4  T4         -0.0332
    524  C6       -59.7640  -32.4820  -15.3290 C.ar    4  T4          0.0199
    525 1H5*      -63.7780  -31.0780  -15.9830 H       4  T4          0.0584
    526 2H5*      -64.2320  -29.8040  -14.7980 H       4  T4          0.0584
    527  H4*      -64.2040  -31.8860  -13.6260 H       4  T4          0.0646
    528  H3*      -62.4050  -29.8560  -12.7910 H       4  T4          0.0628
    529 1H2*      -60.4440  -30.9280  -13.3270 H       4  T4          0.0335
    530 2H2*      -60.6500  -31.8080  -11.7760 H       4  T4          0.0335
    531  H1*      -61.6930  -33.6930  -12.7990 H       4  T4          0.0840
    532  H3       -58.2860  -35.8240  -15.0160 H       4  T4          0.1734
    533 1H5M      -57.3160  -31.9890  -17.5980 H       4  T4          0.0280
    534 2H5M      -58.4950  -30.7780  -16.9960 H       4  T4          0.0280
    535 3H5M      -59.0230  -32.0500  -18.1520 H       4  T4          0.0280
    536  H6       -60.3920  -31.5900  -15.4410 H       4  T4          0.0816
    537  H5T      -62.5940  -29.0990  -16.1270 H       4  T4          0.2095
    538  P        -62.7410  -30.7820  -10.0930 P.3     5  T5          0.2130
    539  O1P      -63.9360  -30.6320   -9.2380 O.3     5  T5         -0.4373
    540  O2P      -61.9830  -29.5320  -10.2700 O.2     5  T5         -0.5172
    541  O5*      -61.8090  -31.9000   -9.5080 O.3     5  T5         -0.3248
    542  C5*      -62.2840  -33.2650   -9.4430 C.3     5  T5          0.0836
    543  C4*      -61.1500  -34.2350   -9.0910 C.3     5  T5          0.1114
    544  O4*      -60.2850  -34.3780  -10.2510 O.3     5  T5         -0.3483
    545  C3*      -60.1850  -33.7560   -7.9680 C.3     5  T5          0.0983
    546  O3*      -60.2760  -34.6000   -6.8220 O.3     5  T5         -0.3213
    547  C2*      -58.8030  -33.8080   -8.6370 C.3     5  T5          0.0221
    548  C1*      -59.0200  -34.7860   -9.7860 C.3     5  T5          0.1422
    549  N1       -58.0640  -34.6050  -10.8860 N.ar    5  T5         -0.2737
    550  C2       -57.3880  -35.6770  -11.4130 C.ar    5  T5          0.3313
    551  O2       -57.5530  -36.8310  -11.0220 O.2     5  T5         -0.2464
    552  N3       -56.5010  -35.3660  -12.4060 N.ar    5  T5         -0.2747
    553  C4       -56.2270  -34.1090  -12.9020 C.ar    5  T5          0.2568
    554  O4       -55.3390  -33.9540  -13.7330 O.2     5  T5         -0.2674
    555  C5       -57.0340  -33.0410  -12.3620 C.ar    5  T5          0.0302
    556  C5M      -56.9690  -31.6810  -12.9890 C.3     5  T5         -0.0332
    557  C6       -57.9280  -33.3480  -11.4210 C.ar    5  T5          0.0199
    558 1H5*      -62.7210  -33.5980  -10.4170 H       5  T5          0.0591
    559 2H5*      -63.0760  -33.3510   -8.6630 H       5  T5          0.0591
    560  H4*      -61.5470  -35.2410   -8.8360 H       5  T5          0.0646
    561  H3*      -60.4440  -32.7070   -7.6930 H       5  T5          0.0628
    562 1H2*      -58.5790  -32.7870   -9.0050 H       5  T5          0.0335
    563 2H2*      -57.9790  -34.1380   -7.9850 H       5  T5          0.0335
    564  H1*      -59.1030  -35.8340   -9.4070 H       5  T5          0.0840
    565  H3       -55.9540  -36.1470  -12.7470 H       5  T5          0.1734
    566 1H5M      -57.2740  -30.8860  -12.2710 H       5  T5          0.0280
    567 2H5M      -57.6580  -31.6220  -13.8580 H       5  T5          0.0280
    568 3H5M      -55.9450  -31.4460  -13.3510 H       5  T5          0.0280
    569  H6       -58.7370  -32.6640  -11.1320 H       5  T5          0.0816
    570  P        -59.3330  -34.4860   -5.5810 P.3     6  G6          0.2130
    571  O1P      -60.0950  -34.6960   -4.3400 O.3     6  G6         -0.4373
    572  O2P      -58.5270  -33.2340   -5.6300 O.2     6  G6         -0.5172
    573  O5*      -58.3270  -35.6810   -5.7930 O.3     6  G6         -0.3248
    574  C5*      -58.8340  -36.9980   -6.1410 C.3     6  G6          0.0836
    575  C4*      -57.7190  -38.0090   -6.4710 C.3     6  G6          0.1114
    576  O4*      -57.0700  -37.6570   -7.7320 O.3     6  G6         -0.3484
    577  C3*      -56.5940  -38.0390   -5.4170 C.3     6  G6          0.0983
    578  O3*      -56.2030  -39.3680   -5.0490 O.3     6  G6         -0.3213
    579  C2*      -55.4550  -37.3070   -6.1040 C.3     6  G6          0.0220
    580  C1*      -55.6590  -37.7100   -7.5540 C.3     6  G6          0.1408
    581  N9       -55.0410  -36.7990   -8.5010 N.ar    6  G6         -0.2878
    582  C8       -55.3620  -35.4780   -8.6890 C.ar    6  G6          0.1004
    583  N7       -54.5930  -34.8790   -9.5840 N.ar    6  G6         -0.2286
    584  C5       -53.7360  -35.9090  -10.0030 C.ar    6  G6          0.1721
    585  C6       -52.6640  -35.8980  -10.9470 C.ar    6  G6          0.2803
    586  O6       -52.3180  -34.9280  -11.6200 O.2     6  G6         -0.2654
    587  N1       -52.0150  -37.1280  -10.9980 N.ar    6  G6         -0.2934
    588  C2       -52.3610  -38.2330  -10.2830 C.ar    6  G6          0.1950
    589  N2       -51.6070  -39.2930  -10.4300 N.pl3   6  G6         -0.3289
    590  N3       -53.3650  -38.2630   -9.4240 N.ar    6  G6         -0.1963
    591  C4       -53.9980  -37.0820   -9.3340 C.ar    6  G6          0.1711
    592 1H5*      -59.5070  -36.9540   -7.0290 H       6  G6          0.0591
    593 2H5*      -59.4130  -37.4170   -5.2840 H       6  G6          0.0591
    594  H4*      -58.1380  -39.0330   -6.5760 H       6  G6          0.0646
    595  H3*      -56.9660  -37.4690   -4.5310 H       6  G6          0.0628
    596  H1*      -55.3320  -38.7660   -7.7060 H       6  G6          0.0840
    597  H8       -56.1860  -35.0290   -8.1260 H       6  G6          0.1030
    598  H1       -51.2670  -37.2220  -11.6690 H       6  G6          0.1716
    599 1H2       -50.9100  -39.3860  -11.1500 H       6  G6          0.1451
    600 2H2       -51.7380  -40.0060   -9.7530 H       6  G6          0.1451
    601 2H2*      -54.4520  -37.5790   -5.7330 H       6  G6          0.0335
    602 1H2*      -55.6200  -36.2170   -5.9850 H       6  G6          0.0335
    603  P        -55.2160  -39.5350   -3.8230 P.3     7  T7          0.2130
    604  O1P      -55.5830  -40.7680   -3.0990 O.2     7  T7         -0.5172
    605  O2P      -55.1730  -38.2700   -3.0510 O.3     7  T7         -0.4373
    606  O5*      -53.8120  -39.7320   -4.5160 O.3     7  T7         -0.3248
    607  C5*      -53.5080  -40.9600   -5.2200 C.3     7  T7          0.0836
    608  C4*      -52.0400  -41.0060   -5.6880 C.3     7  T7          0.1114
    609  O4*      -51.8000  -39.9540   -6.6790 O.3     7  T7         -0.3483
    610  C3*      -51.0020  -40.7510   -4.5640 C.3     7  T7          0.0983
    611  O3*      -49.8050  -41.5170   -4.7160 O.3     7  T7         -0.3213
    612  C2*      -50.6530  -39.2940   -4.7440 C.3     7  T7          0.0221
    613  C1*      -50.6710  -39.1990   -6.2640 C.3     7  T7          0.1422
    614  N1       -50.8100  -37.8560   -6.8070 N.ar    7  T7         -0.2737
    615  C2       -50.0080  -37.4590   -7.8180 C.ar    7  T7          0.3313
    616  O2       -49.1260  -38.2170   -8.3350 O.2     7  T7         -0.2464
    617  N3       -50.1920  -36.2100   -8.2770 N.ar    7  T7         -0.2747
    618  C4       -51.1460  -35.3070   -7.8580 C.ar    7  T7          0.2568
    619  O4       -51.2640  -34.2360   -8.4550 O.2     7  T7         -0.2674
    620  C5       -51.9590  -35.7590   -6.7540 C.ar    7  T7          0.0302
    621  C5M      -52.9000  -34.7940   -6.1000 C.3     7  T7         -0.0332
    622  C6       -51.7630  -37.0000   -6.2900 C.ar    7  T7          0.0199
    623 1H5*      -54.1620  -41.0660   -6.1190 H       7  T7          0.0591
    624 2H5*      -53.6820  -41.8450   -4.5620 H       7  T7          0.0591
    625  H4*      -51.8180  -41.9890   -6.1520 H       7  T7          0.0646
    626  H3*      -51.5000  -40.9100   -3.5750 H       7  T7          0.0628
    627 1H2*      -51.4420  -38.6730   -4.2770 H       7  T7          0.0335
    628 2H2*      -49.6750  -39.0240   -4.3090 H       7  T7          0.0335
    629  H1*      -49.7760  -39.7420   -6.6550 H       7  T7          0.0840
    630  H3       -49.6090  -35.9520   -9.0600 H       7  T7          0.1734
    631 1H5M      -53.6140  -35.3280   -5.4360 H       7  T7          0.0280
    632 2H5M      -53.4970  -34.2330   -6.8510 H       7  T7          0.0280
    633 3H5M      -52.3430  -34.0610   -5.4760 H       7  T7          0.0280
    634  H6       -52.4320  -37.4740   -5.5620 H       7  T7          0.0816
    635  P        -49.4570  -42.7140   -3.7780 P.3     8  G8          0.2130
    636  O1P      -50.3710  -43.8390   -4.0690 O.2     8  G8         -0.5172
    637  O2P      -49.3690  -42.2210   -2.3880 O.3     8  G8         -0.4373
    638  O5*      -48.0100  -43.0750   -4.3070 O.3     8  G8         -0.3248
    639  C5*      -47.8770  -43.5800   -5.6620 C.3     8  G8          0.0836
    640  C4*      -46.5290  -43.2180   -6.3070 C.3     8  G8          0.1114
    641  O4*      -46.6040  -41.8840   -6.9010 O.3     8  G8         -0.3484
    642  C3*      -45.3250  -43.1810   -5.3480 C.3     8  G8          0.0983
    643  O3*      -44.1660  -43.7780   -5.9290 O.3     8  G8         -0.3213
    644  C2*      -45.1500  -41.6960   -5.0570 C.3     8  G8          0.0220
    645  C1*      -45.5830  -41.0390   -6.3630 C.3     8  G8          0.1408
    646  N9       -46.1390  -39.6990   -6.1940 N.ar    8  G8         -0.2878
    647  C8       -47.0600  -39.3350   -5.2420 C.ar    8  G8          0.1004
    648  N7       -47.3640  -38.0590   -5.2940 N.ar    8  G8         -0.2286
    649  C5       -46.6360  -37.5720   -6.3720 C.ar    8  G8          0.1721
    650  C6       -46.6740  -36.3060   -7.0160 C.ar    8  G8          0.2803
    651  O6       -47.3460  -35.3160   -6.6760 O.2     8  G8         -0.2654
    652  N1       -45.8340  -36.2670   -8.1190 N.ar    8  G8         -0.2934
    653  C2       -45.0490  -37.3010   -8.5480 C.ar    8  G8          0.1950
    654  N2       -44.2850  -37.0630   -9.5820 N.pl3   8  G8         -0.3289
    655  N3       -44.9980  -38.4780   -7.9570 N.ar    8  G8         -0.1963
    656  C4       -45.8530  -38.5700   -6.9220 C.ar    8  G8          0.1711
    657 1H5*      -48.6850  -43.2130   -6.3430 H       8  G8          0.0591
    658 2H5*      -47.9510  -44.6900   -5.6330 H       8  G8          0.0591
    659  H4*      -46.3050  -43.9250   -7.1330 H       8  G8          0.0646
    660  H3*      -45.6030  -43.7260   -4.4170 H       8  G8          0.0628
    661  H1*      -44.7370  -41.0470   -7.0910 H       8  G8          0.0840
    662  H8       -47.5030  -40.0710   -4.5630 H       8  G8          0.1030
    663  H1       -45.8120  -35.4070   -8.6410 H       8  G8          0.1716
    664 1H2       -44.2880  -36.1890  -10.0710 H       8  G8          0.1451
    665 2H2       -43.6030  -37.7620   -9.7640 H       8  G8          0.1451
    666 2H2*      -44.1400  -41.3810   -4.7480 H       8  G8          0.0335
    667 1H2*      -45.8550  -41.4420   -4.2340 H       8  G8          0.0335
    668  P        -42.7690  -43.7610   -5.2040 P.3     9  A9          0.2130
    669  O1P      -42.0750  -45.0270   -5.5190 O.2     9  A9         -0.5172
    670  O2P      -42.9360  -43.4030   -3.7800 O.3     9  A9         -0.4373
    671  O5*      -42.0360  -42.5680   -5.9550 O.3     9  A9         -0.3248
    672  C5*      -41.9690  -42.6360   -7.4060 C.3     9  A9          0.0836
    673  C4*      -41.1270  -41.5090   -8.0270 C.3     9  A9          0.1114
    674  O4*      -41.7890  -40.2140   -7.8730 O.3     9  A9         -0.3484
    675  C3*      -39.7390  -41.3550   -7.3830 C.3     9  A9          0.0983
    676  O3*      -38.7190  -41.1360   -8.3570 O.3     9  A9         -0.3213
    677  C2*      -39.9150  -40.1750   -6.4390 C.3     9  A9          0.0220
    678  C1*      -40.9520  -39.3090   -7.1540 C.3     9  A9          0.1408
    679  N9       -41.8130  -38.5530   -6.2640 N.ar    9  A9         -0.2879
    680  C8       -42.4120  -39.0230   -5.1210 C.ar    9  A9          0.1003
    681  N7       -43.1520  -38.1270   -4.5060 N.ar    9  A9         -0.2306
    682  C5       -43.0380  -37.0020   -5.3230 C.ar    9  A9          0.1473
    683  C6       -43.6290  -35.7200   -5.2750 C.ar    9  A9          0.1472
    684  N6       -44.4350  -35.2980   -4.2960 N.pl3   9  A9         -0.3413
    685  N1       -43.3650  -34.8430   -6.2730 N.ar    9  A9         -0.2188
    686  C2       -42.5380  -35.2300   -7.2500 C.ar    9  A9          0.1205
    687  N3       -41.9370  -36.4040   -7.4170 N.ar    9  A9         -0.2159
    688  C4       -42.2330  -37.2580   -6.4160 C.ar    9  A9          0.1673
    689 1H5*      -42.9890  -42.5860   -7.8560 H       9  A9          0.0591
    690 2H5*      -41.5010  -43.5980   -7.7240 H       9  A9          0.0591
    691  H4*      -40.9950  -41.6920   -9.1150 H       9  A9          0.0646
    692  H3*      -39.5310  -42.2860   -6.8020 H       9  A9          0.0628
    693  H1*      -40.4520  -38.6580   -7.9090 H       9  A9          0.0840
    694  H8       -42.2710  -40.0590   -4.7950 H       9  A9          0.1030
    695 1H6       -44.5500  -35.8320   -3.4640 H       9  A9          0.1438
    696 2H6       -44.8750  -34.4000   -4.3650 H       9  A9          0.1438
    697  H2       -42.3460  -34.4890   -8.0360 H       9  A9          0.1048
    698 2H2*      -38.9900  -39.6140   -6.2150 H       9  A9          0.0335
    699 1H2*      -40.3250  -40.5780   -5.4880 H       9  A9          0.0335
    700  P        -37.2020  -40.9940   -7.9400 P.3    10  G10         0.2130
    701  O1P      -36.3680  -41.5470   -9.0300 O.2    10  G10        -0.5172
    702  O2P      -37.0140  -41.5440   -6.5780 O.3    10  G10        -0.4373
    703  O5*      -37.0180  -39.4230   -7.8840 O.3    10  G10        -0.3248
    704  C5*      -37.4550  -38.5950   -8.9920 C.3    10  G10         0.0836
    705  C4*      -37.5970  -37.1120   -8.6070 C.3    10  G10         0.1114
    706  O4*      -38.5050  -36.9660   -7.4870 O.3    10  G10        -0.3484
    707  C3*      -36.3010  -36.4570   -8.0850 C.3    10  G10         0.0983
    708  O3*      -35.7510  -35.5720   -9.0680 O.3    10  G10        -0.3213
    709  C2*      -36.7580  -35.6920   -6.8270 C.3    10  G10         0.0220
    710  C1*      -38.2810  -35.6720   -6.9670 C.3    10  G10         0.1408
    711  N9       -39.0050  -35.5790   -5.7000 N.ar   10  G10        -0.2878
    712  C8       -39.0170  -36.5480   -4.7240 C.ar   10  G10         0.1004
    713  N7       -39.7350  -36.2200   -3.6750 N.ar   10  G10        -0.2286
    714  C5       -40.2290  -34.9490   -3.9970 C.ar   10  G10         0.1721
    715  C6       -41.0680  -34.0610   -3.2470 C.ar   10  G10         0.2803
    716  O6       -41.5570  -34.2330   -2.1370 O.2    10  G10        -0.2654
    717  N1       -41.2970  -32.8830   -3.9510 N.ar   10  G10        -0.2934
    718  C2       -40.8210  -32.5880   -5.1930 C.ar   10  G10         0.1950
    719  N2       -41.1750  -31.4300   -5.6930 N.pl3  10  G10        -0.3289
    720  N3       -40.0600  -33.4080   -5.9050 N.ar   10  G10        -0.1963
    721  C4       -39.7910  -34.5510   -5.2430 C.ar   10  G10         0.1711
    722 1H5*      -38.4440  -38.9200   -9.3930 H      10  G10         0.0591
    723 2H5*      -36.7140  -38.6680   -9.8200 H      10  G10         0.0591
    724  H4*      -37.9930  -36.5150   -9.4540 H      10  G10         0.0646
    725  H3*      -35.6030  -37.2840   -7.8120 H      10  G10         0.0628
    726  H1*      -38.6190  -34.9230   -7.7200 H      10  G10         0.0840
    727  H8       -38.4890  -37.4950   -4.8760 H      10  G10         0.1030
    728  H1       -41.8600  -32.2020   -3.4700 H      10  G10         0.1716
    729 1H2       -41.6750  -30.7390   -5.1600 H      10  G10         0.1451
    730 2H2       -40.9170  -31.2570   -6.6380 H      10  G10         0.1451
    731 2H2*      -36.3510  -34.6630   -6.7750 H      10  G10         0.0335
    732 1H2*      -36.4440  -36.2670   -5.9320 H      10  G10         0.0335
    733  P        -34.2250  -35.1450   -8.9730 P.3    11  C11         0.2130
    734  O1P      -33.7720  -34.7790  -10.3350 O.2    11  C11        -0.5172
    735  O2P      -33.4610  -36.1970   -8.2630 O.3    11  C11        -0.4373
    736  O5*      -34.2800  -33.8460   -8.0650 O.3    11  C11        -0.3248
    737  C5*      -34.7170  -32.5830   -8.6410 C.3    11  C11         0.0836
    738  C4*      -35.0510  -31.5080   -7.5840 C.3    11  C11         0.1114
    739  O4*      -35.9900  -32.0360   -6.6110 O.3    11  C11        -0.3483
    740  C3*      -33.8660  -31.1260   -6.6910 C.3    11  C11         0.0983
    741  O3*      -33.1150  -30.0370   -7.2520 O.3    11  C11        -0.3213
    742  C2*      -34.5330  -30.6830   -5.3820 C.3    11  C11         0.0221
    743  C1*      -36.0030  -31.1440   -5.5050 C.3    11  C11         0.1423
    744  N1       -36.5060  -31.9050   -4.3460 N.ar   11  C11        -0.2725
    745  C2       -37.6280  -31.5280   -3.6060 C.ar   11  C11         0.3521
    746  O2       -38.2510  -30.4940   -3.9090 O.2    11  C11        -0.2444
    747  N3       -38.0170  -32.2650   -2.5490 N.ar   11  C11        -0.1783
    748  C4       -37.3370  -33.3780   -2.2230 C.ar   11  C11         0.1230
    749  N4       -37.7110  -34.0380   -1.1410 N.pl3  11  C11        -0.3430
    750  C5       -36.2160  -33.8150   -2.9810 C.ar   11  C11        -0.0056
    751  C6       -35.8290  -33.0550   -4.0180 C.ar   11  C11         0.0151
    752 1H5*      -35.6290  -32.7220   -9.2680 H      11  C11         0.0591
    753 2H5*      -33.9110  -32.1680   -9.2920 H      11  C11         0.0591
    754  H4*      -35.4710  -30.5870   -8.0420 H      11  C11         0.0646
    755  H3*      -33.2760  -32.0610   -6.5350 H      11  C11         0.0628
    756  H1*      -36.6460  -30.2740   -5.7750 H      11  C11         0.0840
    757 1H4       -38.4910  -33.6800   -0.6280 H      11  C11         0.1437
    758 2H4       -37.1150  -34.7160   -0.7060 H      11  C11         0.1437
    759  H5       -35.6990  -34.7280   -2.6930 H      11  C11         0.0666
    760  H6       -34.9890  -33.3060   -4.6760 H      11  C11         0.0812
    761 2H2*      -34.5160  -29.5780   -5.2930 H      11  C11         0.0335
    762 1H2*      -33.9980  -31.1140   -4.5150 H      11  C11         0.0335
    763  P        -31.5470  -30.0940   -7.3990 P.3    12  G12         0.2130
    764  O1P      -31.0260  -28.6970   -7.4110 O.3    12  G12        -0.4373
    765  O2P      -31.1590  -30.9460   -8.5410 O.2    12  G12        -0.5172
    766  O5*      -31.0820  -30.7780   -6.0280 O.3    12  G12        -0.3248
    767  C5*      -30.8770  -29.8370   -4.9430 C.3    12  G12         0.0836
    768  C4*      -30.5960  -30.4500   -3.5680 C.3    12  G12         0.1114
    769  O4*      -31.6980  -31.2490   -3.0970 O.3    12  G12        -0.3484
    770  C3*      -29.3940  -31.4150   -3.4550 C.3    12  G12         0.0983
    771  O3*      -28.2760  -30.7210   -2.8910 O.3    12  G12        -0.3213
    772  C2*      -29.9600  -32.5530   -2.5650 C.3    12  G12         0.0220
    773  C1*      -31.1900  -31.8820   -1.9530 C.3    12  G12         0.1408
    774  N9       -32.2270  -32.7560   -1.4330 N.ar   12  G12        -0.2878
    775  C8       -32.5800  -33.9840   -1.9270 C.ar   12  G12         0.1004
    776  N7       -33.5630  -34.5370   -1.2600 N.ar   12  G12        -0.2286
    777  C5       -33.8830  -33.5930   -0.2790 C.ar   12  G12         0.1721
    778  C6       -34.8750  -33.6100    0.7450 C.ar   12  G12         0.2803
    779  O6       -35.6910  -34.5060    0.9730 O.2    12  G12        -0.2654
    780  N1       -34.8620  -32.4450    1.4950 N.ar   12  G12        -0.2934
    781  C2       -34.0090  -31.3970    1.3110 C.ar   12  G12         0.1950
    782  N2       -34.1420  -30.3830    2.1380 N.pl3  12  G12        -0.3289
    783  N3       -33.0890  -31.3640    0.3580 N.ar   12  G12        -0.1963
    784  C4       -33.0720  -32.4860   -0.3840 C.ar   12  G12         0.1711
    785 1H5*      -31.7630  -29.1640   -4.8130 H      12  G12         0.0591
    786 2H5*      -29.9830  -29.2250   -5.1870 H      12  G12         0.0591
    787  H4*      -30.4530  -29.6330   -2.8290 H      12  G12         0.0646
    788  H3*      -29.1530  -31.7890   -4.4780 H      12  G12         0.0628
    789  H1*      -30.8880  -31.1030   -1.2170 H      12  G12         0.0840
    790  H8       -32.0820  -34.4250   -2.7950 H      12  G12         0.1030
    791  H1       -35.5480  -32.3940    2.2310 H      12  G12         0.1716
    792 1H2       -34.8110  -30.4060    2.8880 H      12  G12         0.1451
    793 2H2       -33.4560  -29.6640    2.0930 H      12  G12         0.1451
    794 2H2*      -29.2780  -32.9320   -1.7860 H      12  G12         0.0335
    795 1H2*      -30.2420  -33.3920   -3.2360 H      12  G12         0.0335
    796  P        -27.0340  -31.3990   -2.2400 P.3    13  C13         0.2130
    797  O1P      -25.8750  -30.4820   -2.3420 O.3    13  C13        -0.4373
    798  O2P      -26.8530  -32.7600   -2.7790 O.2    13  C13        -0.5172
    799  O5*      -27.4450  -31.4860   -0.7240 O.3    13  C13        -0.3248
    800  C5*      -27.3200  -30.2620    0.0570 C.3    13  C13         0.0836
    801  C4*      -28.2620  -30.1760    1.2660 C.3    13  C13         0.1114
    802  O4*      -29.5770  -30.7180    0.9970 O.3    13  C13        -0.3483
    803  C3*      -27.7730  -30.9370    2.4960 C.3    13  C13         0.0983
    804  O3*      -26.7790  -30.1550    3.1550 O.3    13  C13        -0.3213
    805  C2*      -29.0670  -30.9710    3.2870 C.3    13  C13         0.0221
    806  C1*      -30.1330  -31.2060    2.2160 C.3    13  C13         0.1423
    807  N1       -30.5650  -32.6090    2.0600 N.ar   13  C13        -0.2725
    808  C2       -31.5810  -33.0740    2.8900 C.ar   13  C13         0.3521
    809  O2       -32.0790  -32.3230    3.7330 O.2    13  C13        -0.2444
    810  N3       -32.0310  -34.3350    2.7470 N.ar   13  C13        -0.1783
    811  C4       -31.4830  -35.1480    1.8450 C.ar   13  C13         0.1230
    812  N4       -32.0140  -36.3490    1.7080 N.pl3  13  C13        -0.3430
    813  C5       -30.3760  -34.7360    1.0410 C.ar   13  C13        -0.0056
    814  C6       -29.9520  -33.4650    1.1750 C.ar   13  C13         0.0151
    815 1H5*      -27.5450  -29.3510   -0.5460 H      13  C13         0.0591
    816 2H5*      -26.2740  -30.1640    0.4310 H      13  C13         0.0591
    817  H4*      -28.4030  -29.1150    1.5650 H      13  C13         0.0646
    818  H3*      -27.4160  -31.9420    2.1760 H      13  C13         0.0628
    819  H1*      -31.0130  -30.5550    2.4340 H      13  C13         0.0840
    820 1H4       -32.8920  -36.5130    2.1730 H      13  C13         0.1437
    821 2H4       -31.6750  -37.0120    1.0410 H      13  C13         0.1437
    822  H5       -29.9350  -35.4360    0.3380 H      13  C13         0.0666
    823  H6       -29.1440  -33.0260    0.5750 H      13  C13         0.0812
    824 2H2*      -29.2690  -29.9760    3.7330 H      13  C13         0.0335
    825 1H2*      -29.0730  -31.7250    4.0920 H      13  C13         0.0335
    826  P        -25.9260  -30.7160    4.3400 P.3    14  T14         0.2130
    827  O1P      -24.9210  -29.6920    4.6830 O.3    14  T14        -0.4373
    828  O2P      -25.4250  -32.0720    4.0270 O.2    14  T14        -0.5172
    829  O5*      -26.9470  -30.8360    5.5200 O.3    14  T14        -0.3248
    830  C5*      -27.6240  -29.7000    6.0980 C.3    14  T14         0.0836
    831  C4*      -28.5360  -30.1070    7.2670 C.3    14  T14         0.1114
    832  O4*      -29.5170  -31.1110    6.8710 O.3    14  T14        -0.3483
    833  C3*      -27.7190  -30.7180    8.4090 C.3    14  T14         0.0983
    834  O3*      -28.1120  -30.2100    9.6850 O.3    14  T14        -0.3213
    835  C2*      -27.9700  -32.2110    8.2750 C.3    14  T14         0.0221
    836  C1*      -29.3770  -32.2770    7.6740 C.3    14  T14         0.1422
    837  N1       -29.6100  -33.4200    6.7880 N.ar   14  T14        -0.2737
    838  C2       -30.7560  -34.1680    6.9240 C.ar   14  T14         0.3313
    839  O2       -31.6170  -33.9340    7.7610 O.2    14  T14        -0.2464
    840  N3       -30.8540  -35.2060    6.0510 N.ar   14  T14        -0.2747
    841  C4       -29.9660  -35.5720    5.0620 C.ar   14  T14         0.2568
    842  O4       -30.1570  -36.5880    4.4240 O.2    14  T14        -0.2674
    843  C5       -28.8460  -34.6630    4.9010 C.ar   14  T14         0.0302
    844  C5M      -27.7990  -34.9540    3.8630 C.3    14  T14        -0.0332
    845  C6       -28.7090  -33.6750    5.7760 C.ar   14  T14         0.0199
    846 1H5*      -28.2550  -29.1830    5.3470 H      14  T14         0.0591
    847 2H5*      -26.8820  -28.9670    6.4910 H      14  T14         0.0591
    848  H4*      -29.1010  -29.2370    7.6560 H      14  T14         0.0646
    849  H3*      -26.6450  -30.4920    8.2030 H      14  T14         0.0628
    850 1H2*      -27.2060  -32.6210    7.5850 H      14  T14         0.0335
    851 2H2*      -27.9040  -32.7510    9.2330 H      14  T14         0.0335
    852  H1*      -30.1210  -32.1900    8.5030 H      14  T14         0.0840
    853  H3       -31.6530  -35.8180    6.2050 H      14  T14         0.1734
    854 1H5M      -28.2480  -35.3100    2.9110 H      14  T14         0.0280
    855 2H5M      -27.0970  -35.7380    4.2200 H      14  T14         0.0280
    856 3H5M      -27.1950  -34.0440    3.6320 H      14  T14         0.0280
    857  H6       -27.9230  -32.9160    5.6700 H      14  T14         0.0816
    858  P        -27.2380  -30.5530   10.9580 P.3    15  C15         0.2130
    859  O1P      -27.3560  -29.4050   11.8850 O.3    15  C15        -0.4373
    860  O2P      -25.8730  -30.9240   10.5210 O.2    15  C15        -0.5172
    861  O5*      -27.9600  -31.8370   11.5650 O.3    15  C15        -0.3248
    862  C5*      -29.3570  -31.7490   11.9360 C.3    15  C15         0.0836
    863  C4*      -29.9390  -33.0860   12.4520 C.3    15  C15         0.1114
    864  O4*      -30.2610  -33.9610   11.3220 O.3    15  C15        -0.3483
    865  C3*      -29.0310  -33.9360   13.3820 C.3    15  C15         0.0983
    866  O3*      -29.7230  -34.4030   14.5430 O.3    15  C15        -0.3213
    867  C2*      -28.6150  -35.0960   12.4870 C.3    15  C15         0.0221
    868  C1*      -29.8680  -35.2940   11.6420 C.3    15  C15         0.1423
    869  N1       -29.6370  -36.0300   10.3890 N.ar   15  C15        -0.2725
    870  C2       -30.2730  -37.2370   10.0930 C.ar   15  C15         0.3521
    871  O2       -31.0830  -37.7190   10.8880 O.2    15  C15        -0.2444
    872  N3       -29.9780  -37.8790    8.9380 N.ar   15  C15        -0.1783
    873  C4       -29.0810  -37.3650    8.0960 C.ar   15  C15         0.1230
    874  N4       -28.7710  -38.0550    7.0090 N.pl3  15  C15        -0.3430
    875  C5       -28.4300  -36.1250    8.3690 C.ar   15  C15        -0.0056
    876  C6       -28.7320  -35.5010    9.5160 C.ar   15  C15         0.0151
    877 1H5*      -29.9830  -31.4150   11.0730 H      15  C15         0.0591
    878 2H5*      -29.4740  -30.9980   12.7520 H      15  C15         0.0591
    879  H4*      -30.8880  -32.8890   12.9940 H      15  C15         0.0646
    880  H3*      -28.1440  -33.3240   13.6660 H      15  C15         0.0628
    881  H1*      -30.6800  -35.7370   12.2670 H      15  C15         0.0840
    882 1H4       -29.3170  -38.8640    6.7740 H      15  C15         0.1437
    883 2H4       -28.0400  -37.7450    6.3990 H      15  C15         0.1437
    884  H5       -27.7530  -35.6880    7.6440 H      15  C15         0.0666
    885  H6       -28.3190  -34.5330    9.8170 H      15  C15         0.0812
    886 2H2*      -28.3290  -36.0120   13.0290 H      15  C15         0.0335
    887 1H2*      -27.7570  -34.7620   11.8680 H      15  C15         0.0335
    888  P        -28.9800  -35.1430   15.7240 P.3    16  A16         0.2130
    889  O1P      -29.1470  -34.3430   16.9540 O.3    16  A16        -0.4373
    890  O2P      -27.6080  -35.5240   15.3260 O.2    16  A16        -0.5172
    891  O5*      -29.8170  -36.4750   15.8610 O.3    16  A16        -0.3248
    892  C5*      -31.2440  -36.4260   16.0890 C.3    16  A16         0.0836
    893  C4*      -31.8990  -37.8150   15.9720 C.3    16  A16         0.1114
    894  O4*      -31.6960  -38.3700   14.6350 O.3    16  A16        -0.3484
    895  C3*      -31.2830  -38.8370   16.9440 C.3    16  A16         0.0983
    896  O3*      -32.2500  -39.7440   17.4760 O.3    16  A16        -0.3213
    897  C2*      -30.2470  -39.5380   16.0910 C.3    16  A16         0.0220
    898  C1*      -30.8840  -39.5380   14.7020 C.3    16  A16         0.1408
    899  N9       -29.9290  -39.4720   13.6080 N.ar   16  A16        -0.2879
    900  C8       -28.8650  -38.6070   13.4650 C.ar   16  A16         0.1003
    901  N7       -28.1530  -38.8150   12.3740 N.ar   16  A16        -0.2306
    902  C5       -28.8380  -39.8580   11.7480 C.ar   16  A16         0.1473
    903  C6       -28.6270  -40.5470   10.5340 C.ar   16  A16         0.1472
    904  N6       -27.6690  -40.2270    9.6520 N.pl3  16  A16        -0.3413
    905  N1       -29.4510  -41.5670   10.2140 N.ar   16  A16        -0.2188
    906  C2       -30.4350  -41.8820   11.0670 C.ar   16  A16         0.1205
    907  N3       -30.7500  -41.2910   12.2170 N.ar   16  A16        -0.2159
    908  C4       -29.9200  -40.2740   12.4980 C.ar   16  A16         0.1673
    909 1H5*      -31.7460  -35.7540   15.3530 H      16  A16         0.0591
    910 2H5*      -31.4440  -36.0350   17.1140 H      16  A16         0.0591
    911  H4*      -32.9870  -37.7490   16.1690 H      16  A16         0.0646
    912  H3*      -30.7930  -38.2690   17.7670 H      16  A16         0.0628
    913  H1*      -31.5720  -40.4130   14.6110 H      16  A16         0.0840
    914  H8       -28.6620  -37.8310   14.2140 H      16  A16         0.1030
    915 1H6       -27.2790  -39.3170    9.7030 H      16  A16         0.1438
    916 2H6       -27.6770  -40.7110    8.7740 H      16  A16         0.1438
    917  H2       -31.0790  -42.7220   10.7750 H      16  A16         0.1048
    918 2H2*      -30.0040  -40.5470   16.4450 H      16  A16         0.0335
    919 1H2*      -29.3170  -38.9300   16.1060 H      16  A16         0.0335
    920  P        -31.8860  -40.8340   18.5570 P.3    17  C17         0.2130
    921  O1P      -32.7860  -40.6690   19.7170 O.3    17  C17        -0.4373
    922  O2P      -30.4240  -40.8220   18.7960 O.2    17  C17        -0.5172
    923  O5*      -32.2220  -42.1880   17.8090 O.3    17  C17        -0.3248
    924  C5*      -33.4920  -42.3850   17.1440 C.3    17  C17         0.0836
    925  C4*      -33.4540  -43.5440   16.1260 C.3    17  C17         0.1114
    926  O4*      -32.4780  -43.2700   15.0760 O.3    17  C17        -0.3483
    927  C3*      -33.0530  -44.9010   16.7360 C.3    17  C17         0.0983
    928  O3*      -33.8390  -45.9860   16.2290 O.3    17  C17        -0.3213
    929  C2*      -31.5900  -45.0460   16.3540 C.3    17  C17         0.0221
    930  C1*      -31.5260  -44.3370   15.0000 C.3    17  C17         0.1423
    931  N1       -30.2150  -43.7550   14.6900 N.ar   17  C17        -0.2725
    932  C2       -29.5150  -44.0650   13.5280 C.ar   17  C17         0.3521
    933  O2       -29.9830  -44.8830   12.7280 O.2    17  C17        -0.2444
    934  N3       -28.3230  -43.4780   13.2880 N.ar   17  C17        -0.1783
    935  C4       -27.8120  -42.6200   14.1750 C.ar   17  C17         0.1230
    936  N4       -26.6920  -41.9960   13.8460 N.pl3  17  C17        -0.3430
    937  C5       -28.4720  -42.3330   15.4020 C.ar   17  C17        -0.0056
    938  C6       -29.6650  -42.9100   15.6160 C.ar   17  C17         0.0151
    939 1H5*      -33.8150  -41.4720   16.5890 H      17  C17         0.0591
    940 2H5*      -34.2700  -42.6150   17.9060 H      17  C17         0.0591
    941  H4*      -34.4480  -43.6590   15.6450 H      17  C17         0.0646
    942  H3*      -33.1630  -44.8000   17.8430 H      17  C17         0.0628
    943  H1*      -31.9020  -45.0270   14.2060 H      17  C17         0.0840
    944 1H4       -26.2550  -42.3000   12.9920 H      17  C17         0.1437
    945 2H4       -26.2590  -41.3300   14.4400 H      17  C17         0.1437
    946  H5       -28.0390  -41.6260   16.1050 H      17  C17         0.0666
    947  H6       -30.2870  -42.6970   16.4930 H      17  C17         0.0812
    948 2H2*      -31.2310  -46.0860   16.2840 H      17  C17         0.0335
    949 1H2*      -30.9950  -44.5150   17.1250 H      17  C17         0.0335
    950  P        -33.7690  -47.3880   16.9530 P.3    18  A18         0.2130
    951  O1P      -35.0310  -48.1090   16.6880 O.2    18  A18        -0.5172
    952  O2P      -33.3750  -47.1840   18.3640 O.3    18  A18        -0.4373
    953  O5*      -32.5830  -48.1200   16.2120 O.3    18  A18        -0.3248
    954  C5*      -32.7100  -48.5590   14.8410 C.3    18  A18         0.0836
    955  C4*      -31.4130  -49.2300   14.3530 C.3    18  A18         0.1114
    956  O4*      -30.3930  -48.2010   14.1050 O.3    18  A18        -0.3484
    957  C3*      -30.7520  -50.1830   15.3980 C.3    18  A18         0.0983
    958  O3*      -30.1900  -51.3700   14.8250 O.3    18  A18        -0.3213
    959  C2*      -29.6070  -49.3400   15.9220 C.3    18  A18         0.0220
    960  C1*      -29.1710  -48.6960   14.6100 C.3    18  A18         0.1408
    961  N9       -28.2380  -47.5940   14.7440 N.ar   18  A18        -0.2879
    962  C8       -28.2180  -46.6570   15.7430 C.ar   18  A18         0.1003
    963  N7       -27.2370  -45.7880   15.6380 N.ar   18  A18        -0.2306
    964  C5       -26.5970  -46.1690   14.4560 C.ar   18  A18         0.1473
    965  C6       -25.5030  -45.6260   13.7450 C.ar   18  A18         0.1472
    966  N6       -24.7940  -44.5680   14.1660 N.pl3  18  A18        -0.3413
    967  N1       -25.1270  -46.2150   12.5870 N.ar   18  A18        -0.2188
    968  C2       -25.7930  -47.3060   12.1880 C.ar   18  A18         0.1205
    969  N3       -26.8190  -47.9220   12.7800 N.ar   18  A18        -0.2159
    970  C4       -27.2030  -47.2770   13.8960 C.ar   18  A18         0.1673
    971 1H5*      -32.9450  -47.7050   14.1620 H      18  A18         0.0591
    972 2H5*      -33.5360  -49.3060   14.7570 H      18  A18         0.0591
    973  H4*      -31.5960  -49.7940   13.4130 H      18  A18         0.0646
    974  H3*      -31.4780  -50.4030   16.2200 H      18  A18         0.0628
    975  H1*      -28.8060  -49.4610   13.8850 H      18  A18         0.0840
    976  H8       -28.9760  -46.6600   16.5320 H      18  A18         0.1030
    977 1H6       -24.7310  -44.3810   15.1410 H      18  A18         0.1438
    978 2H6       -24.0560  -44.2160   13.5860 H      18  A18         0.1438
    979  H2       -25.4410  -47.7600   11.2520 H      18  A18         0.1048
    980 2H2*      -28.8270  -49.9470   16.4130 H      18  A18         0.0335
    981 1H2*      -30.0130  -48.5910   16.6360 H      18  A18         0.0335
    982  P        -31.0820  -52.6640   14.7430 P.3    19  A19         0.2130
    983  O1P      -32.3320  -52.3460   14.0220 O.2    19  A19        -0.5172
    984  O2P      -31.1720  -53.2780   16.0830 O.3    19  A19        -0.4373
    985  O5*      -30.1830  -53.5820   13.8170 O.3    19  A19        -0.3248
    986  C5*      -29.9640  -53.2090   12.4340 C.3    19  A19         0.0835
    987  C4*      -28.5080  -53.4490   12.0070 C.3    19  A19         0.1107
    988  O4*      -27.7020  -52.2820   12.3480 O.3    19  A19        -0.3484
    989  C3*      -27.8160  -54.6370   12.7140 C.3    19  A19         0.0877
    990  O3*      -27.0040  -55.4580   11.8740 O.3    19  A19        -0.3890
    991  C2*      -26.9510  -53.9780   13.7680 C.3    19  A19         0.0213
    992  C1*      -26.5460  -52.6860   13.0570 C.3    19  A19         0.1408
    993  N9       -26.1790  -51.5960   13.9380 N.ar   19  A19        -0.2879
    994  C8       -26.8400  -51.1980   15.0720 C.ar   19  A19         0.1003
    995  N7       -26.2610  -50.1880   15.6890 N.ar   19  A19        -0.2306
    996  C5       -25.1750  -49.8870   14.8660 C.ar   19  A19         0.1473
    997  C6       -24.1680  -48.8970   14.9300 C.ar   19  A19         0.1472
    998  N6       -24.0670  -47.9710   15.8940 N.pl3  19  A19        -0.3413
    999  N1       -23.2310  -48.8640   13.9560 N.ar   19  A19        -0.2188
   1000  C2       -23.3070  -49.7640   12.9710 C.ar   19  A19         0.1205
   1001  N3       -24.1770  -50.7640   12.8180 N.ar   19  A19        -0.2159
   1002  C4       -25.1190  -50.7410   13.7820 C.ar   19  A19         0.1673
   1003 1H5*      -30.2230  -52.1410   12.2180 H      19  A19         0.0591
   1004 2H5*      -30.6230  -53.8390   11.7960 H      19  A19         0.0591
   1005  H4*      -28.4360  -53.5840   10.9080 H      19  A19         0.0646
   1006  H3*      -28.6020  -55.2690   13.1890 H      19  A19         0.0621
   1007  H3T      -26.4510  -56.0240   12.4180 H      19  A19         0.2099
   1008  H1*      -25.7650  -52.8890   12.2890 H      19  A19         0.0840
   1009  H8       -27.7630  -51.6950   15.3910 H      19  A19         0.1030
   1010 1H6       -24.6880  -47.9410   16.6690 H      19  A19         0.1438
   1011 2H6       -23.3720  -47.2540   15.7930 H      19  A19         0.1438
   1012  H2       -22.5210  -49.6950   12.2070 H      19  A19         0.1048
   1013 2H2*      -26.0760  -54.5830   14.0700 H      19  A19         0.0335
   1014 1H2*      -27.5850  -53.7650   14.6580 H      19  A19         0.0335
@<TRIPOS>BOND
     1   414   413    2
     2   415   413    1
     3   413   416    1
     4   413   389    1
     5   535   523    1
     6   477   475    2
     7   433   417    1
     8   435   420    1
     9   403   385    1
    10   416   417    1
    11   382   381    2
    12   533   523    1
    13   389   388    1
    14   504   491    1
    15   523   534    1
    16   523   522    1
    17   417   432    1
    18   417   418    1
    19   473   452    1
    20   442   422    1
    21   474   452    1
    22   469   455    1
    23   491   503    1
    24   491   490    1
    25   521   520    2
    26   405   388    1
    27   420   421    1
    28   420   422    1
    29   420   418    1
    30   488   487   ar
    31   488   489   ar
    32   383   381    1
    33   385   384    1
    34   385   402    1
    35   385   386    1
    36   475   476    1
    37   475   451    1
    38   475   478    1
    39   381   384    1
    40   381   359    1
    41   440   431    1
    42   388   386    1
    43   388   390    1
    44   502   487    1
    45   421   443    1
    46   452   450    1
    47   452   453    1
    48   467   450    1
    49   422   441    1
    50   422   423    1
    51   439   430    1
    52   455   456   ar
    53   455   454   ar
    54   522   520   ar
    55   522   524   ar
    56   537   508    1
    57   507   484    1
    58   487   486   ar
    59   520   519   ar
    60   456   457   ar
    61   451   450    1
    62   418   434    1
    63   418   419    1
    64   525   509    1
    65   404   386    1
    66   386   387    1
    67   490   489   ar
    68   490   492   ar
    69   489   495   ar
    70   450   448    1
    71   470   459    1
    72   431   430   ar
    73   431   424   ar
    74   478   479    1
    75   445   443    2
    76   508   509    1
    77   430   428   ar
    78   536   524    1
    79   506   484    1
    80   524   516   ar
    81   412   390    1
    82   390   411    1
    83   390   391    1
    84   484   482    1
    85   484   485    1
    86   454   453    1
    87   454   463   ar
    88   359   358    1
    89   509   526    1
    90   509   510    1
    91   443   444    1
    92   443   446    1
    93   519   532    1
    94   519   517   ar
    95   486   495   ar
    96   486   485    1
    97   453   468    1
    98   453   449    1
    99   407   393    1
   100   499   482    1
   101   419   423    1
   102   492   493   ar
   103   457   463   ar
   104   457   458   ar
   105   423   424    1
   106   423   436    1
   107   495   494   ar
   108   459   471    1
   109   459   458    1
   110   438   429    1
   111   424   425   ar
   112   373   358    1
   113   387   391    1
   114   511   510    1
   115   511   515    1
   116   448   449    1
   117   448   447    1
   118   448   466    1
   119   516   517   ar
   120   516   515    1
   121   463   462   ar
   122   482   483    1
   123   482   480    1
   124   485   501    1
   125   485   481    1
   126   446   447    1
   127   428   429    1
   128   428   427   ar
   129   458   460   ar
   130   517   518    2
   131   379   360    1
   132   479   497    1
   133   479   480    1
   134   479   496    1
   135   465   447    1
   136   358   360    1
   137   358   356    1
   138   393   392   ar
   139   393   394   ar
   140   500   483    1
   141   429   437    1
   142   391   392    1
   143   391   406    1
   144   493   494   ar
   145   493   505    1
   146   510   527    1
   147   510   512    1
   148   447   464    1
   149   567   556    1
   150   554   553    2
   151   392   401   ar
   152   481   480    1
   153   480   498    1
   154   515   531    1
   155   515   514    1
   156   360   380    1
   157   360   361    1
   158   425   427   ar
   159   425   426    2
   160   394   395   ar
   161   568   556    1
   162   529   514    1
   163   462   461   ar
   164   372   356    1
   165   460   461   ar
   166   371   355    1
   167   556   555    1
   168   556   566    1
   169   356   355    1
   170   356   357    1
   171   553   552   ar
   172   553   555   ar
   173   528   512    1
   174   461   472    1
   175   514   512    1
   176   514   530    1
   177   565   552    1
   178   374   361    1
   179   512   513    1
   180   352   351    2
   181   401   395   ar
   182   401   400   ar
   183   395   396   ar
   184   552   550   ar
   185   355   354    1
   186   355   370    1
   187   555   557   ar
   188   361   357    1
   189   361   362    1
   190   354   351    1
   191   400   399   ar
   192   351   353    1
   193   351   327    1
   194   598   587    1
   195   586   585    2
   196   513   538    1
   197   557   569    1
   198   557   549   ar
   199   550   551    2
   200   550   549   ar
   201   396   397    1
   202   396   398   ar
   203   409   397    1
   204   378   369    1
   205   362   369   ar
   206   362   363   ar
   207   599   589    1
   208   397   408    1
   209   587   585   ar
   210   587   588   ar
   211   585   584   ar
   212   364   363    2
   213   549   548    1
   214   399   398   ar
   215   399   410    1
   216   369   368   ar
   217   363   365   ar
   218   589   588    1
   219   589   600    1
   220   558   542    1
   221   327   326    1
   222   734   733    2
   223   588   590   ar
   224   540   538    2
   225   544   548    1
   226   544   543    1
   227   538   541    1
   228   538   539    1
   229   664   654    1
   230   584   583   ar
   231   584   591   ar
   232   344   328    1
   233   723   704    1
   234   548   564    1
   235   548   547    1
   236   665   654    1
   237   368   377    1
   238   368   366   ar
   239   583   582   ar
   240   654   653    1
   241   541   542    1
   242   365   366   ar
   243   724   705    1
   244   542   543    1
   245   542   559    1
   246   590   591   ar
   247   722   704    1
   248   591   581   ar
   249   753   737    1
   250   752   737    1
   251   326   342    1
   252   326   328    1
   253   326   324    1
   254   691   673    1
   255   543   560    1
   256   543   545    1
   257   708   733    1
   258   708   707    1
   259   630   617    1
   260   366   367    1
   261   701   700    2
   262   328   343    1
   263   328   329    1
   264   562   547    1
   265   345   329    1
   266   704   705    1
   267   704   703    1
   268   733   735    1
   269   733   736    1
   270   582   581   ar
   271   582   597    1
   272   663   652    1
   273   737   736    1
   274   737   738    1
   275   547   563    1
   276   547   545    1
   277   705   707    1
   278   705   706    1
   279   653   652   ar
   280   653   655   ar
   281   765   763    2
   282   581   580    1
   283   619   618    2
   284   676   700    1
   285   676   675    1
   286   616   615    2
   287   341   324    1
   288   617   618   ar
   289   617   615   ar
   290   329   325    1
   291   329   330    1
   292   332   331    2
   293   652   650   ar
   294   707   725    1
   295   707   709    1
   296   754   738    1
   297   697   686    1
   298   673   674    1
   299   673   672    1
   300   673   675    1
   301   367   375    1
   302   367   376    1
   303   545   561    1
   304   545   546    1
   305   655   656   ar
   306   324   325    1
   307   324   323    1
   308   700   703    1
   309   700   702    1
   310   693   678    1
   311   674   678    1
   312   618   620   ar
   313   689   672    1
   314   615   614   ar
   315   576   580    1
   316   576   575    1
   317   690   672    1
   318   726   710    1
   319   596   580    1
   320   738   740    1
   321   738   739    1
   322   580   579    1
   323   706   710    1
   324   687   686   ar
   325   687   688   ar
   326   764   763    1
   327   672   671    1
   328   763   741    1
   329   763   766    1
   330   675   692    1
   331   675   677    1
   332   331   330   ar
   333   331   333   ar
   334   330   338   ar
   335   741   740    1
   336   686   685   ar
   337   340   323    1
   338   678   677    1
   339   678   679    1
   340   659   640    1
   341   661   645    1
   342   592   574    1
   343   650   651    2
   344   650   649   ar
   345   710   709    1
   346   710   711    1
   347   656   649   ar
   348   656   646   ar
   349   641   645    1
   350   641   640    1
   351   632   621    1
   352   323   322    1
   353   323   339    1
   354   709   731    1
   355   709   732    1
   356   546   570    1
   357   614   622   ar
   358   614   613    1
   359   620   622   ar
   360   620   621    1
   361   740   755    1
   362   740   742    1
   363   609   613    1
   364   609   608    1
   365   629   613    1
   366   730   719    1
   367   739   743    1
   368   594   575    1
   369   322   319    1
   370   575   574    1
   371   575   577    1
   372   677   698    1
   373   677   699    1
   374   320   319    2
   375   333   346    1
   376   333   334   ar
   377   688   679   ar
   378   688   682   ar
   379   338   350    1
   380   338   336   ar
   381   649   648   ar
   382   645   646    1
   383   645   644    1
   384   657   639    1
   385   640   639    1
   386   640   642    1
   387   622   634    1
   388   685   683   ar
   389   679   680   ar
   390   613   612    1
   391   646   647   ar
   392   625   608    1
   393   574   573    1
   394   574   593    1
   395   623   607    1
   396   579   602    1
   397   579   601    1
   398   579   577    1
   399   621   633    1
   400   621   631    1
   401   766   767    1
   402   671   668    1
   403   643   642    1
   404   643   668    1
   405   720   721   ar
   406   720   718   ar
   407   573   570    1
   408   756   743    1
   409   711   721   ar
   410   711   712   ar
   411   719   718    1
   412   719   729    1
   413   608   607    1
   414   608   610    1
   415   319   321    1
   416   319   297    1
   417   639   658    1
   418   639   638    1
   419   572   570    2
   420   570   571    1
   421   669   668    2
   422   743   742    1
   423   743   744    1
   424   336   334   ar
   425   336   337    1
   426   334   335    2
   427   577   578    1
   428   577   595    1
   429   742   761    1
   430   742   762    1
   431   642   644    1
   432   642   660    1
   433   682   683   ar
   434   682   681   ar
   435   648   647   ar
   436   683   684    1
   437   721   714   ar
   438   647   662    1
   439   607   624    1
   440   607   606    1
   441   668   670    1
   442   718   717   ar
   443   786   767    1
   444   680   694    1
   445   680   681   ar
   446   644   666    1
   447   644   667    1
   448   578   603    1
   449   767   785    1
   450   767   768    1
   451   727   712    1
   452   612   610    1
   453   612   628    1
   454   612   627    1
   455   712   713   ar
   456   611   610    1
   457   611   635    1
   458   347   337    1
   459   760   751    1
   460   610   626    1
   461   606   603    1
   462   788   770    1
   463   297   296    1
   464   337   349    1
   465   337   348    1
   466   696   684    1
   467   744   751   ar
   468   744   745   ar
   469   638   635    1
   470   684   695    1
   471   317   298    1
   472   636   635    2
   473   751   750   ar
   474   714   713   ar
   475   714   715   ar
   476   717   728    1
   477   717   715   ar
   478   302   301    2
   479   746   745    2
   480   603   604    2
   481   603   605    1
   482   635   637    1
   483   312   299    1
   484   745   747   ar
   485   768   770    1
   486   768   769    1
   487   768   787    1
   488   770   771    1
   489   770   772    1
   490   298   296    1
   491   298   299    1
   492   298   318    1
   493   715   716    2
   494   795   772    1
   495   296   311    1
   496   296   294    1
   497   769   773    1
   498   750   759    1
   499   750   748   ar
   500   771   796    1
   501   285   275    1
   502   299   300    1
   503   299   295    1
   504   301   303   ar
   505   301   300   ar
   506   790   775    1
   507   798   796    2
   508   310   294    1
   509   772   773    1
   510   772   794    1
   511   747   748   ar
   512   286   275    1
   513   797   796    1
   514   796   799    1
   515   748   749    1
   516   303   304   ar
   517   294   295    1
   518   294   293    1
   519   300   307   ar
   520   275   274    1
   521   773   774    1
   522   773   789    1
   523   775   774   ar
   524   775   776   ar
   525   774   784   ar
   526   284   273    1
   527   776   777   ar
   528   309   293    1
   529   749   758    1
   530   749   757    1
   531   274   273   ar
   532   274   276   ar
   533   304   305    1
   534   304   306   ar
   535   313   305    1
   536   307   316    1
   537   307   306   ar
   538   293   308    1
   539   293   292    1
   540   799   800    1
   541   273   271   ar
   542   815   800    1
   543   305   314    1
   544   784   777   ar
   545   784   783   ar
   546   306   315    1
   547   777   778   ar
   548   276   277   ar
   549   292   289    1
   550   800   816    1
   551   800   801    1
   552   822   813    1
   553   783   781   ar
   554   271   272    2
   555   271   270   ar
   556   823   814    1
   557   778   779    2
   558   778   780   ar
   559   277   270   ar
   560   277   267   ar
   561   282   266    1
   562   802   801    1
   563   802   806    1
   564   290   289    2
   565   813   814   ar
   566   813   811   ar
   567   821   812    1
   568   814   807   ar
   569   289   291    1
   570   289   264    1
   571   801   817    1
   572   801   803    1
   573   270   269   ar
   574   781   780   ar
   575   781   782    1
   576   287   265    1
   577   780   791    1
   578   812   811    1
   579   812   820    1
   580   811   810   ar
   581   267   266    1
   582   267   268   ar
   583   266   265    1
   584   266   262    1
   585   264   263    1
   586   807   806    1
   587   807   808   ar
   588   250   242    1
   589   793   782    1
   590   782   792    1
   591    97    96    2
   592   818   803    1
   593   806   819    1
   594   806   805    1
   595   265   263    1
   596   265   288    1
   597   803   804    1
   598   803   805    1
   599   251   242    1
   600   269   268   ar
   601    98    96    1
   602   242   241    1
   603   810   808   ar
   604   268   283    1
   605   808   809    2
   606   262   261    1
   607   854   844    1
   608    64    63    2
   609   263   261    1
   610   263   281    1
   611    96    99    1
   612    96    71    1
   613   804   826    1
   614   209   208    2
   615   805   824    1
   616   805   825    1
   617   240   241   ar
   618   240   238   ar
   619   241   243   ar
   620   130   128    2
   621   280   261    1
   622    88    70    1
   623   856   844    1
   624   261   260    1
   625   126   114    1
   626   844   855    1
   627   844   843    1
   628   119   103    1
   629   221   210    1
   630   239   238    2
   631   828   826    2
   632    99   100    1
   633   238   237   ar
   634    86    67    1
   635   208   210   ar
   636   208   207   ar
   637    71    70    1
   638   189   177    1
   639    63    65    1
   640    63    66    1
   641    63    39    1
   642   117   100    1
   643   243   252    1
   644   243   244   ar
   645   826   827    1
   646   826   829    1
   647   255   235    1
   648   120   105    1
   649   842   841    2
   650   125   114    1
   651    70    72    1
   652    70    68    1
   653   210   211   ar
   654    66    67    1
   655   188   177    1
   656   129   128    1
   657   114   124    1
   658   114   113    1
   659   128   104    1
   660   128   131    1
   661   177   176    1
   662   843   841   ar
   663   843   845   ar
   664   100   116    1
   665   100   101    1
   666   127   115    1
   667   237   244   ar
   668   237   236    1
   669    67    68    1
   670    67    85    1
   671   103   105    1
   672   103   104    1
   673   103   101    1
   674    94    72    1
   675   207   206   ar
   676   207   214   ar
   677   206   205   ar
   678    95    72    1
   679   244   253    1
   680   121   105    1
   681   841   840   ar
   682   222   212    1
   683   105   106    1
   684   260   259    1
   685   260   278    1
   686   260   279    1
   687    72    73    1
   688   846   830    1
   689    39    38    1
   690   259   256    1
   691    68    87    1
   692    68    69    1
   693   235   254    1
   694   235   236    1
   695   235   233    1
   696   155   140    1
   697   829   830    1
   698   211   212    1
   699   211   213   ar
   700   857   845    1
   701   141   140   ar
   702   141   142   ar
   703   212   223    1
   704   131   132    1
   705   115   113   ar
   706   115   107   ar
   707   249   236    1
   708   113   111   ar
   709   845   837   ar
   710   236   232    1
   711   101   118    1
   712   101   102    1
   713   160   137    1
   714   174   175   ar
   715   174   173   ar
   716   176   175   ar
   717   176   178   ar
   718   140   139   ar
   719   214   213   ar
   720   214   204   ar
   721   205   220    1
   722   205   204   ar
   723   248   233    1
   724   840   853    1
   725   840   838   ar
   726   830   847    1
   727   830   831    1
   728    54    38    1
   729   144   143    2
   730   233   234    1
   731   233   231    1
   732   883   874    1
   733   175   181   ar
   734   153   135    1
   735    38    40    1
   736    38    36    1
   737   258   256    2
   738   106   107    1
   739   106   102    1
   740   106   122    1
   741   234   256    1
   742   256   257    1
   743    73    69    1
   744    73    89    1
   745    73    74    1
   746   204   203    1
   747    52    35    1
   748   178   179   ar
   749   107   108   ar
   750    56    40    1
   751   142   143   ar
   752   142   149   ar
   753   882   874    1
   754    90    75    1
   755   837   838   ar
   756   837   836    1
   757   187   173    1
   758   173   172   ar
   759   832   831    1
   760   832   836    1
   761   137   159    1
   762   137   135    1
   763   137   138    1
   764   838   839    2
   765   111   112    2
   766   111   110   ar
   767   224   202    1
   768   874   873    1
   769   143   145   ar
   770   225   202    1
   771   132   151    1
   772   132   150    1
   773   132   133    1
   774   232   231    1
   775    53    36    1
   776   139   149   ar
   777   139   138    1
   778   831   848    1
   779   831   833    1
   780    40    55    1
   781    40    41    1
   782   135   133    1
   783   135   136    1
   784    36    35    1
   785    36    37    1
   786   202   203    1
   787   202   200    1
   788    75    74   ar
   789    75    76   ar
   790   850   835    1
   791   181   172   ar
   792   181   180   ar
   793    74    84   ar
   794   231   247    1
   795   231   230    1
   796   884   875    1
   797    35    34    1
   798    35    51    1
   799   836   835    1
   800   836   852    1
   801   149   148   ar
   802   179   180   ar
   803   179   190    1
   804   203   219    1
   805   203   199    1
   806   138   134    1
   807   138   154    1
   808   108   110   ar
   809   108   109    2
   810   172   171    1
   811   110   123    1
   812    32    31    2
   813   228   226    2
   814   229   230    1
   815   229   226    1
   816   192   170    1
   817   133   134    1
   818   133   152    1
   819   873   875   ar
   820   873   872   ar
   821    34    31    1
   822    57    41    1
   823   136   161    1
   824   145   156    1
   825   145   146   ar
   826   849   833    1
   827   835   833    1
   828   835   851    1
   829   875   876   ar
   830   191   170    1
   831   833   834    1
   832    41    37    1
   833    41    42    1
   834    76    77   ar
   835   230   246    1
   836   230   245    1
   837    84    83   ar
   838    84    77   ar
   839   170   171    1
   840   170   168    1
   841    31    33    1
   842    31     6    1
   843   916   904    1
   844   226   201    1
   845   226   227    1
   846   199   198    1
   847   148   146   ar
   848   872   870   ar
   849   200   218    1
   850   200   201    1
   851   200   198    1
   852   171   186    1
   853   171   167    1
   854    83    81   ar
   855   146   147    1
   856    77    78   ar
   857   164   161    1
   858   164   165    1
   859   876   885    1
   860   876   869   ar
   861   195   193    2
   862    62    50    1
   863   161   163    2
   864   161   162    1
   865    42    50   ar
   866    42    43   ar
   867   904   915    1
   868   904   903    1
   869   834   858    1
   870   198   217    1
   871   198   197    1
   872   167   166    1
   873   185   168    1
   874    93    82    1
   875    44    43    2
   876   196   193    1
   877   196   197    1
   878   168   166    1
   879   168   169    1
   880    50    48   ar
   881    81    82    1
   882    81    80   ar
   883   870   869   ar
   884   870   871    2
   885     6     5    1
   886   147   157    1
   887   147   158    1
   888   905   903   ar
   889   905   906   ar
   890    43    45   ar
   891    23     7    1
   892   869   868    1
   893    78    80   ar
   894    78    79    2
   895   860   858    2
   896   903   902   ar
   897    82    92    1
   898   193   169    1
   899   193   194    1
   900   166   165    1
   901   166   184    1
   902   165   182    1
   903   165   183    1
   904   197   215    1
   905   197   216    1
   906    60    49    1
   907    80    91    1
   908   917   906    1
   909  1005   987    1
   910   858   861    1
   911   858   859    1
   912    48    49    1
   913    48    46   ar
   914   906   907   ar
   915   877   862    1
   916   979   968    1
   917   864   868    1
   918   864   863    1
   919    45    46   ar
   920    45    58    1
   921     5     7    1
   922     5    21    1
   923     5     3    1
   924     7    22    1
   925     7     8    1
   926    24     8    1
   927    49    59    1
   928    49    61    1
   929   861   862    1
   930   868   881    1
   931   868   867    1
   932   902   901   ar
   933   902   908   ar
   934    46    47    2
   935  1004   986    1
   936   887   867    1
   937   990  1007    1
   938   990   989    1
   939   862   863    1
   940   862   878    1
   941   987   988    1
   942   987   986    1
   943   987   989    1
   944     8     9    1
   945     8     4    1
   946   968   967   ar
   947   968   969   ar
   948  1012  1000    1
   949   907   908   ar
   950  1003   986    1
   951    11    10    2
   952    20     3    1
   953  1008   992    1
   954   988   992    1
   955   901   900   ar
   956   986   985    1
   957   863   879    1
   958   863   865    1
   959   867   886    1
   960   867   865    1
   961   908   899   ar
   962     3     4    1
   963     3     2    1
   964   967   965   ar
   965   989  1006    1
   966   989   991    1
   967   933   932    2
   968   969   970   ar
   969  1001  1000   ar
   970  1001  1002   ar
   971    10     9   ar
   972    10    12   ar
   973     9    17   ar
   974  1000   999   ar
   975   944   936    1
   976   992   991    1
   977   992   993    1
   978    19     2    1
   979   934   932   ar
   980   934   935   ar
   981   865   880    1
   982   865   866    1
   983   973   955    1
   984   900   899   ar
   985   900   914    1
   986   932   931   ar
   987   978   966    1
   988   899   898    1
   989     2     1    1
   990     2    18    1
   991    12    25    1
   992    12    13   ar
   993   965   966    1
   994   965   964   ar
   995   991  1013    1
   996   991  1014    1
   997  1002   993   ar
   998  1002   996   ar
   999    17    29    1
  1000    17    15   ar
  1001   985   982    1
  1002   936   935    1
  1003   936   945    1
  1004   975   960    1
  1005   970   964   ar
  1006   970   961   ar
  1007   993   994   ar
  1008   999   997   ar
  1009   983   982    2
  1010   956   955    1
  1011   956   960    1
  1012   971   954    1
  1013   966   977    1
  1014   935   937   ar
  1015   943   930    1
  1016   955   954    1
  1017   955   957    1
  1018     1    30    1
  1019   964   963   ar
  1020   866   888    1
  1021    15    13   ar
  1022    15    16    1
  1023   960   961    1
  1024   960   959    1
  1025   913   898    1
  1026   894   898    1
  1027   894   893    1
  1028    13    14    2
  1029   931   930    1
  1030   931   938   ar
  1031   898   897    1
  1032   982   958    1
  1033   982   984    1
  1034   961   962   ar
  1035   972   954    1
  1036   958   957    1
  1037   954   953    1
  1038   996   997   ar
  1039   996   995   ar
  1040   997   998    1
  1041   930   926    1
  1042   930   929    1
  1043   994  1009    1
  1044   994   995   ar
  1045   926   925    1
  1046    28    16    1
  1047   890   888    2
  1048   909   892    1
  1049   957   959    1
  1050   957   974    1
  1051   937   938   ar
  1052   937   946    1
  1053    16    27    1
  1054    16    26    1
  1055   938   947    1
  1056   963   962   ar
  1057   941   925    1
  1058   888   891    1
  1059   888   889    1
  1060   962   976    1
  1061  1011   998    1
  1062   891   892    1
  1063   998  1010    1
  1064   959   980    1
  1065   959   981    1
  1066   893   892    1
  1067   893   911    1
  1068   893   895    1
  1069   892   910    1
  1070   897   919    1
  1071   897   918    1
  1072   897   895    1
  1073   925   927    1
  1074   925   924    1
  1075   953   950    1
  1076   928   927    1
  1077   928   950    1
  1078   948   929    1
  1079   929   927    1
  1080   929   949    1
  1081   939   924    1
  1082   951   950    2
  1083   927   942    1
  1084   895   896    1
  1085   895   912    1
  1086   950   952    1
  1087   924   923    1
  1088   924   940    1
  1089   896   920    1
  1090   923   920    1
  1091   920   922    2
  1092   920   921    1
