@<TRIPOS>MOLECULE
1z04_E_F.pdb
   507    546     16
SMALL
USER_CHARGES


@<TRIPOS>ATOM
       1  O1       -15.6290  -44.3960   14.3970 O.3       4 T4         -0.3924
       2  C1       -14.8280  -45.3630   13.6980 C.3       4 T4          0.0729
       3  C2       -15.5660  -46.1210   12.5770 C.3       4 T4          0.1107
       4  O2       -16.8410  -46.6360   13.0650 O.3       4 T4         -0.3483
       5  C3       -15.8830  -45.2700   11.3270 C.3       4 T4          0.0982
       6  O3       -15.4650  -45.9050   10.1100 O.3       4 T4         -0.3213
       7  C4       -17.3960  -45.0940   11.3830 C.3       4 T4          0.0221
       8  C5       -17.8750  -46.3460   12.1300 C.3       4 T4          0.1422
       9  N1       -19.0990  -46.1690   12.9300 N.ar      4 T4         -0.2737
      10  C6       -20.0940  -47.1240   12.9160 C.ar      4 T4          0.3313
      11  O4       -20.0460  -48.1400   12.2360 O.2       4 T4         -0.2464
      12  N2       -21.1510  -46.8510   13.7440 N.ar      4 T4         -0.2747
      13  C7       -21.2460  -45.8320   14.6580 C.ar      4 T4          0.2568
      14  O5       -22.1820  -45.8100   15.4560 O.2       4 T4         -0.2674
      15  C8       -20.1860  -44.8560   14.6000 C.ar      4 T4          0.0302
      16  C9       -20.1680  -43.7220   15.5780 C.3       4 T4         -0.0332
      17  C10      -19.1520  -45.1040   13.7890 C.ar      4 T4          0.0199
      18  H1       -14.4880  -46.1150   14.4450 H         4 T4          0.0584
      19  H2       -13.9200  -44.8820   13.2710 H         4 T4          0.0584
      20  H3       -14.9630  -46.9940   12.2470 H         4 T4          0.0646
      21  H4       -15.3760  -44.2860   11.4670 H         4 T4          0.0628
      22  H5       -17.6140  -44.1580   11.9320 H         4 T4          0.0335
      23  H6       -17.8630  -45.0340   10.3850 H         4 T4          0.0335
      24  H7       -17.9230  -47.2000   11.4110 H         4 T4          0.0840
      25  H8       -21.8710  -47.5660   13.7760 H         4 T4          0.1734
      26  H9       -19.6310  -44.0040   16.5110 H         4 T4          0.0280
      27  H10      -21.2010  -43.4170   15.8600 H         4 T4          0.0280
      28  H11      -19.6620  -42.8310   15.1450 H         4 T4          0.0280
      29  H12      -18.2370  -44.5060   13.8080 H         4 T4          0.0816
      30  H13      -16.3010  -44.9410   14.8380 H         4 T4          0.2095
      31  P1       -15.4220  -45.0800    8.7660 P.3       5 T5          0.2130
      32  O6       -14.4020  -45.7040    7.8970 O.2       5 T5         -0.5172
      33  O7       -15.1820  -43.6590    9.0880 O.3       5 T5         -0.4373
      34  O8       -16.8340  -45.2750    8.0990 O.3       5 T5         -0.3248
      35  C11      -17.1830  -46.6180    7.6600 C.3       5 T5          0.0836
      36  C12      -18.6960  -46.8170    7.4930 C.3       5 T5          0.1114
      37  O9       -19.3690  -46.5210    8.7460 O.3       5 T5         -0.3483
      38  C13      -19.3630  -45.8650    6.4700 C.3       5 T5          0.0983
      39  O10      -19.8600  -46.5850    5.3470 O.3       5 T5         -0.3213
      40  C14      -20.4780  -45.1870    7.2700 C.3       5 T5          0.0221
      41  C15      -20.6870  -46.1320    8.4440 C.3       5 T5          0.1422
      42  N3       -21.2170  -45.4460    9.6200 N.ar      5 T5         -0.2737
      43  C16      -22.3230  -45.9260   10.2680 C.ar      5 T5          0.3313
      44  O11      -22.9190  -46.9430    9.9270 O.2       5 T5         -0.2464
      45  N4       -22.7330  -45.1670   11.3240 N.ar      5 T5         -0.2747
      46  C17      -22.1770  -43.9870   11.7740 C.ar      5 T5          0.2568
      47  O12      -22.6810  -43.3810   12.7080 O.2       5 T5         -0.2674
      48  C18      -21.0010  -43.5550   11.0560 C.ar      5 T5          0.0302
      49  C19      -20.2110  -42.3780   11.5440 C.3       5 T5         -0.0332
      50  C20      -20.5630  -44.3200   10.0580 C.ar      5 T5          0.0199
      51  H14      -16.8420  -47.4000    8.3840 H         5 T5          0.0591
      52  H15      -16.6990  -46.8300    6.6790 H         5 T5          0.0591
      53  H16      -18.9280  -47.8680    7.2150 H         5 T5          0.0646
      54  H17      -18.5960  -45.1180    6.1570 H         5 T5          0.0628
      55  H18      -20.0970  -44.1980    7.5880 H         5 T5          0.0335
      56  H19      -21.4330  -45.0390    6.7370 H         5 T5          0.0335
      57  H20      -21.2600  -47.0390    8.1310 H         5 T5          0.0840
      58  H21      -23.5590  -45.5300   11.7900 H         5 T5          0.1734
      59  H22      -20.8690  -41.5860   11.9640 H         5 T5          0.0280
      60  H23      -19.6180  -41.9230   10.7180 H         5 T5          0.0280
      61  H24      -19.4960  -42.6910   12.3350 H         5 T5          0.0280
      62  H25      -19.5730  -44.1890    9.6030 H         5 T5          0.0816
      63  P2       -20.7500  -45.9530    4.2250 P.3       6 G6          0.2130
      64  O13      -20.4130  -46.5380    2.9230 O.2       6 G6         -0.5172
      65  O14      -20.7420  -44.4660    4.2810 O.3       6 G6         -0.4373
      66  O15      -22.2080  -46.3930    4.6210 O.3       6 G6         -0.3248
      67  C21      -22.4720  -47.7780    4.9670 C.3       6 G6          0.0836
      68  C22      -23.9300  -48.0010    5.3980 C.3       6 G6          0.1114
      69  O16      -24.1500  -47.3870    6.7040 O.3       6 G6         -0.3484
      70  C23      -24.9750  -47.3650    4.4510 C.3       6 G6          0.0983
      71  O17      -26.0750  -48.2310    4.1610 O.3       6 G6         -0.3213
      72  C24      -25.4290  -46.1360    5.2180 C.3       6 G6          0.0220
      73  C25      -25.3290  -46.5940    6.6580 C.3       6 G6          0.1408
      74  N5       -25.1880  -45.4970    7.5980 N.ar      6 G6         -0.2878
      75  C26      -24.2500  -44.4930    7.5620 C.ar      6 G6          0.1004
      76  N6       -24.3940  -43.6060    8.5330 N.ar      6 G6         -0.2286
      77  C27      -25.5040  -44.1020    9.2380 C.ar      6 G6          0.1721
      78  C28      -26.1430  -43.5980   10.4170 C.ar      6 G6          0.2803
      79  O18      -25.7910  -42.6130   11.0390 O.2       6 G6         -0.2654
      80  N7       -27.2600  -44.3770   10.7440 N.ar      6 G6         -0.2934
      81  C29      -27.6640  -45.4980   10.0920 C.ar      6 G6          0.1950
      82  N8       -28.7330  -46.1040   10.5360 N.pl3     6 G6         -0.3289
      83  N9       -27.0600  -45.9810    9.0230 N.ar      6 G6         -0.1963
      84  C30      -25.9970  -45.2430    8.6620 C.ar      6 G6          0.1711
      85  H26      -21.8200  -48.1150    5.8090 H         6 G6          0.0591
      86  H27      -22.2740  -48.4400    4.0900 H         6 G6          0.0591
      87  H28      -24.1470  -49.0840    5.4990 H         6 G6          0.0646
      88  H29      -24.4470  -47.0770    3.5130 H         6 G6          0.0628
      89  H30      -26.1860  -47.2640    6.9100 H         6 G6          0.0840
      90  H31      -23.4770  -44.4850    6.7870 H         6 G6          0.1030
      91  H32      -27.7630  -44.1050   11.5800 H         6 G6          0.1716
      92  H33      -29.2940  -45.7330   11.2840 H         6 G6          0.1451
      93  H34      -29.1130  -46.7800    9.9160 H         6 G6          0.1451
      94  H35      -26.4490  -45.7980    4.9760 H         6 G6          0.0335
      95  H36      -24.7090  -45.3170    5.0260 H         6 G6          0.0335
      96  P3       -27.1860  -47.7740    3.1290 P.3       7 T7          0.2130
      97  O19      -27.4080  -48.8770    2.1740 O.2       7 T7         -0.5172
      98  O20      -26.8430  -46.4360    2.5830 O.3       7 T7         -0.4373
      99  O21      -28.4570  -47.6080    4.0570 O.3       7 T7         -0.3248
     100  C31      -28.8600  -48.7020    4.9170 C.3       7 T7          0.0836
     101  C32      -30.0860  -48.3630    5.7870 C.3       7 T7          0.1114
     102  O22      -29.7750  -47.3020    6.7470 O.3       7 T7         -0.3483
     103  C33      -31.2900  -47.8630    4.9710 C.3       7 T7          0.0983
     104  O23      -32.5220  -48.4140    5.4390 O.3       7 T7         -0.3213
     105  C34      -31.2330  -46.3560    5.1400 C.3       7 T7          0.0221
     106  C35      -30.6310  -46.1830    6.5350 C.3       7 T7          0.1422
     107  N10      -29.8080  -44.9830    6.6980 N.ar      7 T7         -0.2737
     108  C36      -29.9440  -44.2180    7.8280 C.ar      7 T7          0.3313
     109  O24      -30.7330  -44.4710    8.7270 O.2       7 T7         -0.2464
     110  N11      -29.1110  -43.1450    7.8870 N.ar      7 T7         -0.2747
     111  C37      -28.1760  -42.7430    6.9620 C.ar      7 T7          0.2568
     112  O25      -27.4610  -41.7830    7.1950 O.2       7 T7         -0.2674
     113  C38      -28.1260  -43.5660    5.7750 C.ar      7 T7          0.0302
     114  C39      -27.1360  -43.1900    4.7150 C.3       7 T7         -0.0332
     115  C40      -28.8910  -44.6540    5.7220 C.ar      7 T7          0.0199
     116  H37      -28.0340  -48.9930    5.6070 H         7 T7          0.0591
     117  H38      -29.1290  -49.5920    4.2990 H         7 T7          0.0591
     118  H39      -30.4030  -49.2610    6.3570 H         7 T7          0.0646
     119  H40      -31.1160  -48.1400    3.9030 H         7 T7          0.0628
     120  H41      -30.5700  -45.9570    4.3480 H         7 T7          0.0335
     121  H42      -32.2070  -45.8520    5.0450 H         7 T7          0.0335
     122  H43      -31.4590  -46.2670    7.2840 H         7 T7          0.0840
     123  H44      -29.2110  -42.5870    8.7300 H         7 T7          0.1734
     124  H45      -26.0980  -43.3580    5.0770 H         7 T7          0.0280
     125  H46      -27.2340  -42.1170    4.4430 H         7 T7          0.0280
     126  H47      -27.2820  -43.7950    3.7910 H         7 T7          0.0280
     127  H48      -28.7490  -45.4310    4.9590 H         7 T7          0.0816
     128  P4       -33.8850  -48.0860    4.7150 P.3       8 G8          0.2130
     129  O26      -34.6900  -49.3230    4.6690 O.3       8 G8         -0.4373
     130  O27      -33.6270  -47.3920    3.4360 O.2       8 G8         -0.5172
     131  O28      -34.5690  -47.0620    5.7190 O.3       8 G8         -0.3248
     132  C41      -34.7840  -47.4990    7.0880 C.3       8 G8          0.0836
     133  C42      -35.3850  -46.3980    7.9810 C.3       8 G8          0.1114
     134  O29      -34.3850  -45.3590    8.2200 O.3       8 G8         -0.3484
     135  C43      -36.6010  -45.6890    7.3380 C.3       8 G8          0.0983
     136  O30      -37.7490  -45.5360    8.1610 O.3       8 G8         -0.3213
     137  C44      -36.0530  -44.3490    6.8780 C.3       8 G8          0.0220
     138  C45      -34.8770  -44.0790    7.8260 C.3       8 G8          0.1408
     139  N12      -33.7710  -43.3410    7.2190 N.ar      8 G8         -0.2878
     140  C46      -33.1910  -43.6190    6.0060 C.ar      8 G8          0.1004
     141  N13      -32.2300  -42.7810    5.6890 N.ar      8 G8         -0.2286
     142  C47      -32.1760  -41.9070    6.7710 C.ar      8 G8          0.1721
     143  C48      -31.3550  -40.7720    7.0170 C.ar      8 G8          0.2803
     144  O31      -30.4440  -40.3330    6.2910 O.2       8 G8         -0.2654
     145  N14      -31.6780  -40.1410    8.2030 N.ar      8 G8         -0.2934
     146  C49      -32.6520  -40.5570    9.0690 C.ar      8 G8          0.1950
     147  N15      -32.8610  -39.8120   10.1140 N.pl3     8 G8         -0.3289
     148  N16      -33.3920  -41.6230    8.8730 N.ar      8 G8         -0.1963
     149  C50      -33.1220  -42.2450    7.7180 C.ar      8 G8          0.1711
     150  H49      -33.8290  -47.8280    7.5630 H         8 G8          0.0591
     151  H50      -35.4920  -48.3620    7.1020 H         8 G8          0.0591
     152  H51      -35.6740  -46.8330    8.9610 H         8 G8          0.0646
     153  H52      -36.8930  -46.2980    6.4520 H         8 G8          0.0628
     154  H53      -35.2330  -43.5790    8.7540 H         8 G8          0.0840
     155  H54      -33.5290  -44.4680    5.4070 H         8 G8          0.1030
     156  H55      -31.1250  -39.3460    8.4730 H         8 G8          0.1716
     157  H56      -32.2630  -39.0630   10.4090 H         8 G8          0.1451
     158  H57      -33.6010  -40.1240   10.7020 H         8 G8          0.1451
     159  H58      -36.8140  -43.5450    6.9240 H         8 G8          0.0335
     160  H59      -35.6960  -44.4680    5.8330 H         8 G8          0.0335
     161  P5       -37.9490  -44.9900    9.6160 P.3       9 A9          0.2130
     162  O32      -36.9880  -45.6200   10.5460 O.3       9 A9         -0.4373
     163  O33      -39.3760  -45.1430    9.9610 O.2       9 A9         -0.5172
     164  O34      -37.6300  -43.4310    9.4870 O.3       9 A9         -0.3248
     165  C51      -37.1780  -42.7540   10.6910 C.3       9 A9          0.0836
     166  C52      -37.3320  -41.2210   10.6320 C.3       9 A9          0.1114
     167  O35      -36.2770  -40.6000    9.8330 O.3       9 A9         -0.3484
     168  C53      -38.6600  -40.7170   10.0380 C.3       9 A9          0.0983
     169  O36      -39.3160  -39.8000   10.9190 O.3       9 A9         -0.3213
     170  C54      -38.2460  -40.0630    8.7180 C.3       9 A9          0.0220
     171  C55      -36.8300  -39.5750    9.0140 C.3       9 A9          0.1408
     172  N17      -35.9590  -39.4720    7.8500 N.ar      9 A9         -0.2879
     173  C56      -35.8680  -40.3890    6.8340 C.ar      9 A9          0.1003
     174  N18      -34.9630  -40.0920    5.9290 N.ar      9 A9         -0.2306
     175  C57      -34.4080  -38.9030    6.4030 C.ar      9 A9          0.1473
     176  C58      -33.3250  -38.1050    5.9600 C.ar      9 A9          0.1472
     177  N19      -32.5820  -38.3630    4.8750 N.pl3     9 A9         -0.3413
     178  N20      -32.9900  -37.0110    6.6880 N.ar      9 A9         -0.2188
     179  C59      -33.6960  -36.7500    7.7930 C.ar      9 A9          0.1205
     180  N21      -34.7000  -37.4370    8.3280 N.ar      9 A9         -0.2159
     181  C60      -35.0080  -38.5190    7.5890 C.ar      9 A9          0.1673
     182  H60      -36.1130  -43.0090   10.9000 H         9 A9          0.0591
     183  H61      -37.7840  -43.0780   11.5740 H         9 A9          0.0591
     184  H62      -37.2290  -40.8020   11.6550 H         9 A9          0.0646
     185  H63      -39.3050  -41.6060    9.8400 H         9 A9          0.0628
     186  H64      -36.8560  -38.6330    9.6130 H         9 A9          0.0840
     187  H65      -36.4980  -41.2810    6.8250 H         9 A9          0.1030
     188  H66      -31.8250  -37.7500    4.6380 H         9 A9          0.1438
     189  H67      -32.8640  -39.0620    4.2220 H         9 A9          0.1438
     190  H68      -33.3920  -35.8540    8.3480 H         9 A9          0.1048
     191  H69      -38.9070  -39.2370    8.3950 H         9 A9          0.0335
     192  H70      -38.2440  -40.8540    7.9380 H         9 A9          0.0335
     193  P6       -40.7640  -39.2690   10.5850 P.3      10 G10         0.2130
     194  O37      -41.4970  -39.0700   11.8560 O.3      10 G10        -0.4373
     195  O38      -41.3750  -40.1230    9.5430 O.2      10 G10        -0.5172
     196  O39      -40.4290  -37.8600    9.9490 O.3      10 G10        -0.3248
     197  C61      -39.6610  -36.8940   10.7070 C.3      10 G10         0.0836
     198  C62      -39.1580  -35.7360    9.8290 C.3      10 G10         0.1114
     199  O40      -38.2240  -36.2270    8.8280 O.3      10 G10        -0.3484
     200  C63      -40.2570  -35.0530    8.9820 C.3      10 G10         0.0983
     201  O41      -40.4960  -33.7110    9.4200 O.3      10 G10        -0.3213
     202  C64      -39.6960  -35.0810    7.5520 C.3      10 G10         0.0220
     203  C65      -38.2060  -35.2560    7.8000 C.3      10 G10         0.1408
     204  N22      -37.4830  -35.8120    6.6620 N.ar     10 G10        -0.2878
     205  C66      -37.8000  -36.9830    6.0210 C.ar     10 G10         0.1004
     206  N23      -37.0150  -37.2420    5.0030 N.ar     10 G10        -0.2286
     207  C67      -36.1150  -36.1740    4.9900 C.ar     10 G10         0.1721
     208  C68      -35.0020  -35.8940    4.1430 C.ar     10 G10         0.2803
     209  O42      -34.5810  -36.5680    3.1940 O.2      10 G10        -0.2654
     210  N24      -34.3760  -34.7110    4.4920 N.ar     10 G10        -0.2934
     211  C69      -34.7420  -33.9020    5.5240 C.ar     10 G10         0.1950
     212  N25      -34.0090  -32.8300    5.7020 N.pl3    10 G10        -0.3289
     213  N26      -35.7700  -34.1370    6.3210 N.ar     10 G10        -0.1963
     214  C70      -36.3960  -35.2850    6.0150 C.ar     10 G10         0.1711
     215  H71      -38.7690  -37.3560   11.1980 H        10 G10         0.0591
     216  H72      -40.3070  -36.4620   11.5060 H        10 G10         0.0591
     217  H73      -38.6380  -34.9670   10.4370 H        10 G10         0.0646
     218  H74      -41.1790  -35.6780    9.0510 H        10 G10         0.0628
     219  H75      -37.7430  -34.3210    8.1960 H        10 G10         0.0840
     220  H76      -38.6160  -37.6130    6.3810 H        10 G10         0.1030
     221  H77      -33.5690  -34.4700    3.9410 H        10 G10         0.1716
     222  H78      -33.2360  -32.6090    5.1080 H        10 G10         0.1451
     223  H79      -34.2330  -32.2680    6.4890 H        10 G10         0.1451
     224  H80      -39.9040  -34.1610    6.9750 H        10 G10         0.0335
     225  H81      -40.1340  -35.9550    7.0250 H        10 G10         0.0335
     226  P7       -41.7420  -32.9410    8.8080 P.3      11 C11         0.2130
     227  O43      -42.4580  -32.2830    9.9220 O.3      11 C11        -0.4373
     228  O44      -42.4900  -33.8580    7.9180 O.2      11 C11        -0.5172
     229  O45      -41.0020  -31.8480    7.9260 O.3      11 C11        -0.3248
     230  C71      -40.4760  -30.6840    8.6020 C.3      11 C11         0.0836
     231  C72      -39.7340  -29.7410    7.6430 C.3      11 C11         0.1114
     232  O46      -38.5170  -30.3740    7.1550 O.3      11 C11        -0.3483
     233  C73      -40.5130  -29.3440    6.3690 C.3      11 C11         0.0983
     234  O47      -41.3030  -28.1650    6.5840 O.3      11 C11        -0.3213
     235  C74      -39.3880  -29.0250    5.4020 C.3      11 C11         0.0221
     236  C75      -38.2790  -30.0240    5.7860 C.3      11 C11         0.1423
     237  N27      -38.2040  -31.2640    4.9660 N.ar     11 C11        -0.2725
     238  C76      -37.1550  -31.4810    4.0720 C.ar     11 C11         0.3521
     239  O48      -36.2610  -30.6330    3.9460 O.2      11 C11        -0.2444
     240  N28      -37.1200  -32.6200    3.3390 N.ar     11 C11        -0.1783
     241  C77      -38.1190  -33.5050    3.4310 C.ar     11 C11         0.1230
     242  N29      -38.0500  -34.5980    2.6800 N.pl3    11 C11        -0.3430
     243  C78      -39.2270  -33.2920    4.3000 C.ar     11 C11        -0.0056
     244  C79      -39.2330  -32.1710    5.0410 C.ar     11 C11         0.0151
     245  H82      -39.7700  -30.9910    9.4100 H        11 C11         0.0591
     246  H83      -41.3170  -30.1150    9.0630 H        11 C11         0.0591
     247  H84      -39.4160  -28.8210    8.1730 H        11 C11         0.0646
     248  H85      -41.0890  -30.2350    6.0240 H        11 C11         0.0628
     249  H86      -37.3030  -29.4860    5.7710 H        11 C11         0.0840
     250  H87      -37.2430  -34.6860    2.0820 H        11 C11         0.1437
     251  H88      -38.8280  -35.1910    2.5240 H        11 C11         0.1437
     252  H89      -40.0250  -34.0280    4.3530 H        11 C11         0.0666
     253  H90      -40.0140  -31.9530    5.7760 H        11 C11         0.0812
     254  H91      -38.9980  -27.9970    5.5750 H        11 C11         0.0335
     255  H92      -39.7050  -29.1270    4.3450 H        11 C11         0.0335
     256  P8       -42.8840  -28.2560    6.6210 P.3      12 G12         0.2130
     257  O49      -43.2100  -27.4710    7.8400 O.3      12 G12        -0.4373
     258  O50      -43.3740  -29.6270    6.5060 O.2      12 G12        -0.5172
     259  O51      -43.3240  -27.4670    5.3550 O.3      12 G12        -0.3248
     260  C80      -43.0900  -26.0660    5.1450 C.3      12 G12         0.0836
     261  C81      -43.1050  -25.7110    3.6480 C.3      12 G12         0.1114
     262  O52      -42.1210  -26.5040    2.9100 O.3      12 G12        -0.3484
     263  C82      -44.4640  -25.9970    2.9870 C.3      12 G12         0.0983
     264  O53      -44.8370  -24.9710    2.0590 O.3      12 G12        -0.3213
     265  C83      -44.2520  -27.3600    2.3340 C.3      12 G12         0.0220
     266  C84      -42.7750  -27.3220    1.9360 C.3      12 G12         0.1408
     267  N30      -42.0960  -28.6210    1.8890 N.ar     12 G12        -0.2878
     268  C85      -42.1680  -29.5990    2.8560 C.ar     12 G12         0.1004
     269  N31      -41.4860  -30.6790    2.5380 N.ar     12 G12        -0.2286
     270  C86      -40.9050  -30.3740    1.3060 C.ar     12 G12         0.1721
     271  C87      -40.0540  -31.1460    0.4590 C.ar     12 G12         0.2803
     272  O54      -39.6260  -32.2880    0.6730 O.2      12 G12        -0.2654
     273  N32      -39.7160  -30.4630   -0.6990 N.ar     12 G12        -0.2934
     274  C88      -40.1370  -29.1960   -1.0140 C.ar     12 G12         0.1950
     275  N33      -39.7170  -28.6990   -2.1490 N.pl3    12 G12        -0.3289
     276  N34      -40.9160  -28.4670   -0.2360 N.ar     12 G12        -0.1963
     277  C89      -41.2680  -29.1050    0.8980 C.ar     12 G12         0.1711
     278  H93      -42.1050  -25.7470    5.5560 H        12 G12         0.0591
     279  H94      -43.8980  -25.4800    5.6440 H        12 G12         0.0591
     280  H95      -42.8640  -24.6370    3.5100 H        12 G12         0.0646
     281  H96      -45.2230  -26.0730    3.8030 H        12 G12         0.0628
     282  H97      -42.7100  -26.7950    0.9620 H        12 G12         0.0840
     283  H98      -42.7360  -29.4450    3.7810 H        12 G12         0.1030
     284  H99      -39.1620  -30.9700   -1.3650 H        12 G12         0.1716
     285 H100      -39.2350  -29.2460   -2.8390 H        12 G12         0.1451
     286 H101      -40.0450  -27.7800   -2.3600 H        12 G12         0.1451
     287 H102      -44.9130  -27.5760    1.4800 H        12 G12         0.0335
     288 H103      -44.4140  -28.1340    3.1140 H        12 G12         0.0335
     289  P9       -46.1790  -25.0520    1.2560 P.3      13 C13         0.2130
     290  O55      -46.6900  -23.6800    1.0230 O.2      13 C13        -0.5172
     291  O56      -47.0970  -26.0290    1.8780 O.3      13 C13        -0.4373
     292  O57      -45.7050  -25.6150   -0.1360 O.3      13 C13        -0.3248
     293  C90      -44.8980  -24.6940   -0.9230 C.3      13 C13         0.0836
     294  C91      -44.3280  -25.3450   -2.1780 C.3      13 C13         0.1114
     295  O58      -43.5670  -26.5450   -1.8520 O.3      13 C13        -0.3483
     296  C92      -45.4110  -25.7600   -3.1930 C.3      13 C13         0.0983
     297  O59      -45.2210  -25.1080   -4.4520 O.3      13 C13        -0.3213
     298  C93      -45.2790  -27.2820   -3.2740 C.3      13 C13         0.0221
     299  C94      -43.8530  -27.5610   -2.8050 C.3      13 C13         0.1423
     300  N35      -43.6860  -28.8770   -2.1560 N.ar     13 C13        -0.2725
     301  C95      -43.0210  -29.9090   -2.7980 C.ar     13 C13         0.3521
     302  O60      -42.5550  -29.7210   -3.9350 O.2      13 C13        -0.2444
     303  N36      -42.8780  -31.0980   -2.1940 N.ar     13 C13        -0.1783
     304  C96      -43.4310  -31.3180   -0.9940 C.ar     13 C13         0.1230
     305  N37      -43.2270  -32.5040   -0.4410 N.pl3    13 C13        -0.3430
     306  C97      -44.1840  -30.3060   -0.3330 C.ar     13 C13        -0.0056
     307  C98      -44.2980  -29.1140   -0.9450 C.ar     13 C13         0.0151
     308 H104      -44.0310  -24.3040   -0.3370 H        13 C13         0.0591
     309 H105      -45.5100  -23.8200   -1.2570 H        13 C13         0.0591
     310 H106      -43.6250  -24.6500   -2.6810 H        13 C13         0.0646
     311 H107      -46.4000  -25.4880   -2.7500 H        13 C13         0.0628
     312 H108      -43.1430  -27.3970   -3.6510 H        13 C13         0.0840
     313 H109      -42.6700  -33.1670   -0.9520 H        13 C13         0.1437
     314 H110      -43.5520  -32.7420    0.4670 H        13 C13         0.1437
     315 H111      -44.6340  -30.5220    0.6330 H        13 C13         0.0666
     316 H112      -44.8150  -28.2520   -0.5130 H        13 C13         0.0812
     317 H113      -45.4270  -27.6890   -4.2910 H        13 C13         0.0335
     318 H114      -46.0250  -27.7360   -2.5870 H        13 C13         0.0335
     319  P10      -46.1830  -25.3400   -5.6740 P.3      14 T14         0.2130
     320  O61      -46.3130  -24.0640   -6.4180 O.2      14 T14        -0.5172
     321  O62      -47.4420  -26.0190   -5.2920 O.3      14 T14        -0.4373
     322  O63      -45.3240  -26.3080   -6.5580 O.3      14 T14        -0.3248
     323  C99      -43.9410  -25.9650   -6.8400 C.3      14 T14         0.0836
     324 C100      -43.3490  -26.8370   -7.9520 C.3      14 T14         0.1114
     325  O64      -43.1460  -28.1970   -7.4760 O.3      14 T14        -0.3483
     326 C101      -44.2750  -26.9420   -9.1670 C.3      14 T14         0.0983
     327  O65      -43.5560  -26.8190  -10.3910 O.3      14 T14        -0.3213
     328 C102      -44.9310  -28.3080   -9.0120 C.3      14 T14         0.0221
     329 C103      -43.8780  -29.1260   -8.2640 C.3      14 T14         0.1422
     330  N38      -44.4230  -30.1210   -7.3250 N.ar     14 T14        -0.2737
     331 C104      -43.9680  -31.4130   -7.3630 C.ar     14 T14         0.3313
     332  O66      -43.1380  -31.8190   -8.1700 O.2      14 T14        -0.2464
     333  N39      -44.5210  -32.2390   -6.4180 N.ar     14 T14        -0.2747
     334 C105      -45.3910  -31.8820   -5.4240 C.ar     14 T14         0.2568
     335  O67      -45.7050  -32.7170   -4.5600 O.2      14 T14        -0.2674
     336 C106      -45.8750  -30.5340   -5.4680 C.ar     14 T14         0.0302
     337 C107      -46.8620  -30.0830   -4.4420 C.3      14 T14        -0.0332
     338 C108      -45.3260  -29.7050   -6.3760 C.ar     14 T14         0.0199
     339 H115      -43.3060  -26.0820   -5.9300 H        14 T14         0.0591
     340 H116      -43.8600  -24.9080   -7.1900 H        14 T14         0.0591
     341 H117      -42.3640  -26.4380   -8.2800 H        14 T14         0.0646
     342 H118      -45.0380  -26.1340   -9.0800 H        14 T14         0.0628
     343 H119      -45.8520  -28.1780   -8.4100 H        14 T14         0.0335
     344 H120      -45.1990  -28.7740   -9.9720 H        14 T14         0.0335
     345 H121      -43.1560  -29.5490   -9.0050 H        14 T14         0.0840
     346 H122      -44.1420  -33.1780   -6.3970 H        14 T14         0.1734
     347 H123      -47.2990  -29.0920   -4.7060 H        14 T14         0.0280
     348 H124      -46.3850  -29.9930   -3.4400 H        14 T14         0.0280
     349 H125      -47.7040  -30.8070   -4.3600 H        14 T14         0.0280
     350 H126      -45.4950  -28.6270   -6.3490 H        14 T14         0.0816
     351  P11      -44.3330  -26.7520  -11.7570 P.3      15 C15         0.2130
     352  O68      -43.6250  -25.7650  -12.5990 O.2      15 C15        -0.5172
     353  O69      -45.7550  -26.4430  -11.4630 O.3      15 C15        -0.4373
     354  O70      -44.1730  -28.2360  -12.3250 O.3      15 C15        -0.3248
     355 C109      -42.8290  -28.7960  -12.3980 C.3      15 C15         0.0836
     356 C110      -42.7630  -30.2450  -12.9380 C.3      15 C15         0.1114
     357  O71      -43.1530  -31.1920  -11.8970 O.3      15 C15        -0.3483
     358 C111      -43.6760  -30.5390  -14.1440 C.3      15 C15         0.0983
     359  O72      -43.0360  -31.3360  -15.1480 O.3      15 C15        -0.3213
     360 C112      -44.8520  -31.2670  -13.5210 C.3      15 C15         0.0221
     361 C113      -44.2090  -32.0340  -12.3550 C.3      15 C15         0.1423
     362  N40      -45.0910  -32.2800  -11.1990 N.ar     15 C15        -0.2725
     363 C114      -45.1480  -33.5020  -10.5210 C.ar     15 C15         0.3521
     364  O73      -44.4440  -34.4480  -10.8940 O.2      15 C15        -0.2444
     365  N41      -46.0030  -33.6460   -9.4780 N.ar     15 C15        -0.1783
     366 C115      -46.7120  -32.6010   -9.0530 C.ar     15 C15         0.1230
     367  N42      -47.5250  -32.7840   -8.0240 N.pl3    15 C15        -0.3430
     368 C116      -46.6210  -31.3220   -9.6720 C.ar     15 C15        -0.0056
     369 C117      -45.7900  -31.2060  -10.7200 C.ar     15 C15         0.0151
     370 H127      -42.3370  -28.7990  -11.3950 H        15 C15         0.0591
     371 H128      -42.2030  -28.1740  -13.0780 H        15 C15         0.0591
     372 H129      -41.7180  -30.4900  -13.2230 H        15 C15         0.0646
     373 H130      -43.9990  -29.5570  -14.5650 H        15 C15         0.0628
     374 H131      -43.7400  -32.9690  -12.7460 H        15 C15         0.0840
     375 H132      -47.5390  -33.6870   -7.5940 H        15 C15         0.1437
     376 H133      -47.9900  -32.0200   -7.5690 H        15 C15         0.1437
     377 H134      -47.1800  -30.4870   -9.2600 H        15 C15         0.0666
     378 H135      -45.5980  -30.2530  -11.2300 H        15 C15         0.0812
     379 H136      -45.3830  -31.9320  -14.2190 H        15 C15         0.0335
     380 H137      -45.5680  -30.5000  -13.1730 H        15 C15         0.0335
     381  P12      -43.7680  -31.6270  -16.5210 P.3      16 A16         0.2130
     382  O74      -42.7650  -31.5660  -17.6080 O.2      16 A16        -0.5172
     383  O75      -44.9580  -30.7550  -16.6390 O.3      16 A16        -0.4373
     384  O76      -44.2400  -33.1360  -16.3400 O.3      16 A16        -0.3248
     385 C118      -43.2730  -34.1980  -16.5790 C.3      16 A16         0.0836
     386 C119      -43.6250  -35.5350  -15.8950 C.3      16 A16         0.1114
     387  O77      -43.9010  -35.3420  -14.4740 O.3      16 A16        -0.3484
     388 C120      -44.8650  -36.2560  -16.4520 C.3      16 A16         0.0983
     389  O78      -44.4950  -37.1130  -17.5420 O.3      16 A16        -0.3213
     390 C121      -45.2680  -37.0840  -15.2500 C.3      16 A16         0.0220
     391 C122      -44.9620  -36.1920  -14.0610 C.3      16 A16         0.1408
     392  N43      -46.0700  -35.3700  -13.6180 N.ar     16 A16        -0.2879
     393 C123      -46.5290  -34.1810  -14.1350 C.ar     16 A16         0.1003
     394  N44      -47.5490  -33.6740  -13.4610 N.ar     16 A16        -0.2306
     395 C124      -47.7450  -34.6060  -12.4450 C.ar     16 A16         0.1473
     396 C125      -48.6420  -34.6590  -11.3580 C.ar     16 A16         0.1472
     397  N45      -49.4820  -33.6770  -11.0060 N.pl3    16 A16        -0.3413
     398  N46      -48.6480  -35.7630  -10.5850 N.ar     16 A16        -0.2188
     399 C126      -47.7880  -36.7480  -10.8700 C.ar     16 A16         0.1205
     400  N47      -46.8310  -36.7710  -11.7910 N.ar     16 A16        -0.2159
     401 C127      -46.8640  -35.6620  -12.5530 C.ar     16 A16         0.1673
     402 H138      -42.2580  -33.9130  -16.2100 H        16 A16         0.0591
     403 H139      -43.1920  -34.3890  -17.6740 H        16 A16         0.0591
     404 H140      -42.7730  -36.2430  -15.9670 H        16 A16         0.0646
     405 H141      -45.6140  -35.4780  -16.7290 H        16 A16         0.0628
     406 H142      -44.5860  -36.8150  -13.2140 H        16 A16         0.0840
     407 H143      -46.0570  -33.7300  -15.0110 H        16 A16         0.1030
     408 H144      -50.0830  -33.8630  -10.2240 H        16 A16         0.1438
     409 H145      -49.3500  -32.7530  -11.3340 H        16 A16         0.1438
     410 H146      -47.8330  -37.6300  -10.2190 H        16 A16         0.1048
     411 H147      -44.6230  -37.9840  -15.1680 H        16 A16         0.0335
     412 H148      -46.3160  -37.4160  -15.2940 H        16 A16         0.0335
     413  P13      -45.6400  -37.7300  -18.4500 P.3      17 C17         0.2130
     414  O79      -45.0410  -38.2520  -19.6950 O.2      17 C17        -0.5172
     415  O80      -46.7390  -36.7440  -18.5540 O.3      17 C17        -0.4373
     416  O81      -46.2150  -38.9380  -17.6150 O.3      17 C17        -0.3248
     417 C128      -45.3930  -39.9670  -17.0300 C.3      17 C17         0.0836
     418 C129      -46.1690  -40.7950  -15.9840 C.3      17 C17         0.1114
     419  O82      -46.7840  -39.9280  -14.9660 O.3      17 C17        -0.3483
     420 C130      -47.3250  -41.5670  -16.6570 C.3      17 C17         0.0983
     421  O83      -47.3840  -42.9650  -16.4080 O.3      17 C17        -0.3213
     422 C131      -48.5800  -40.8350  -16.2040 C.3      17 C17         0.0221
     423 C132      -48.1930  -40.1640  -14.8760 C.3      17 C17         0.1423
     424  N48      -48.8590  -38.8630  -14.6370 N.ar     17 C17        -0.2725
     425 C133      -49.6370  -38.6060  -13.5010 C.ar     17 C17         0.3521
     426  O84      -49.7950  -39.4890  -12.6480 O.2      17 C17        -0.2444
     427  N49      -50.2240  -37.3930  -13.3490 N.ar     17 C17        -0.1783
     428 C134      -50.0560  -36.4580  -14.2850 C.ar     17 C17         0.1230
     429  N50      -50.6080  -35.2680  -14.0740 N.pl3    17 C17        -0.3430
     430 C135      -49.2920  -36.6890  -15.4630 C.ar     17 C17        -0.0056
     431 C136      -48.7250  -37.8980  -15.6030 C.ar     17 C17         0.0151
     432 H149      -44.4920  -39.5430  -16.5330 H        17 C17         0.0591
     433 H150      -45.0360  -40.6570  -17.8290 H        17 C17         0.0591
     434 H151      -45.4870  -41.5060  -15.4750 H        17 C17         0.0646
     435 H152      -47.2080  -41.4210  -17.7550 H        17 C17         0.0628
     436 H153      -48.3300  -40.8790  -14.0340 H        17 C17         0.0840
     437 H154      -51.1820  -35.1770  -13.2600 H        17 C17         0.1437
     438 H155      -50.3900  -34.4910  -14.6540 H        17 C17         0.1437
     439 H156      -49.1610  -35.9010  -16.1990 H        17 C17         0.0666
     440 H157      -48.0770  -38.1510  -16.4550 H        17 C17         0.0812
     441 H158      -49.4260  -41.5270  -16.0480 H        17 C17         0.0335
     442 H159      -48.8420  -40.0830  -16.9740 H        17 C17         0.0335
     443  P14      -47.3230  -43.8270  -15.0990 P.3      18 A18         0.2130
     444  O85      -46.0850  -43.5340  -14.3440 O.3      18 A18        -0.4373
     445  O86      -47.5310  -45.2380  -15.4900 O.2      18 A18        -0.5172
     446  O87      -48.5820  -43.3240  -14.2970 O.3      18 A18        -0.3248
     447 C137      -49.6820  -44.1440  -13.8620 C.3      18 A18         0.0836
     448 C138      -51.0660  -43.6670  -14.3610 C.3      18 A18         0.1114
     449  O88      -51.2320  -42.2240  -14.2970 O.3      18 A18        -0.3484
     450 C139      -51.3420  -43.9710  -15.8530 C.3      18 A18         0.0983
     451  O89      -52.1120  -45.1560  -16.0190 O.3      18 A18        -0.3213
     452 C140      -52.0090  -42.6760  -16.3620 C.3      18 A18         0.0220
     453 C141      -52.3810  -41.9540  -15.0590 C.3      18 A18         0.1408
     454  N51      -52.5260  -40.5050  -15.1710 N.ar     18 A18        -0.2879
     455 C142      -51.9660  -39.7120  -16.1440 C.ar     18 A18         0.1003
     456  N52      -52.2710  -38.4410  -16.0460 N.ar     18 A18        -0.2306
     457 C143      -53.0910  -38.3960  -14.9130 C.ar     18 A18         0.1473
     458 C144      -53.7800  -37.3370  -14.2790 C.ar     18 A18         0.1472
     459  N53      -53.7560  -36.0780  -14.7440 N.pl3    18 A18        -0.3413
     460  N54      -54.5440  -37.6110  -13.1960 N.ar     18 A18        -0.2188
     461 C145      -54.6000  -38.8830  -12.7800 C.ar     18 A18         0.1205
     462  N55      -54.0100  -39.9660  -13.2930 N.ar     18 A18        -0.2159
     463 C146      -53.2490  -39.6530  -14.3580 C.ar     18 A18         0.1673
     464 H160      -49.7040  -44.1130  -12.7520 H        18 A18         0.0591
     465 H161      -49.5640  -45.2140  -14.1580 H        18 A18         0.0591
     466 H162      -51.8640  -44.1330  -13.7550 H        18 A18         0.0646
     467 H163      -50.3490  -44.1010  -16.3430 H        18 A18         0.0628
     468 H164      -53.2510  -42.4300  -14.5540 H        18 A18         0.0840
     469 H165      -51.3160  -40.1300  -16.9160 H        18 A18         0.1030
     470 H166      -53.4680  -35.9150  -15.6830 H        18 A18         0.1438
     471 H167      -54.3720  -35.4100  -14.3240 H        18 A18         0.1438
     472 H168      -55.2260  -39.0640  -11.9000 H        18 A18         0.1048
     473 H169      -52.8810  -42.8010  -17.0210 H        18 A18         0.0335
     474 H170      -51.2410  -42.1250  -16.9360 H        18 A18         0.0335
     475  P15      -53.5610  -45.4330  -16.5330 P.3      19 A19         0.2130
     476  O90      -53.8730  -46.8680  -16.3670 O.3      19 A19        -0.4373
     477  O91      -53.7550  -44.8350  -17.8690 O.2      19 A19        -0.5172
     478  O92      -54.4680  -44.6210  -15.5230 O.3      19 A19        -0.3248
     479 C147      -54.6450  -45.0870  -14.1640 C.3      19 A19         0.0835
     480 C148      -55.9370  -44.5450  -13.5400 C.3      19 A19         0.1107
     481  O93      -55.9550  -43.0850  -13.5530 O.3      19 A19        -0.3484
     482 C149      -57.1740  -44.9840  -14.3340 C.3      19 A19         0.0877
     483  O94      -58.2930  -45.3840  -13.5430 O.3      19 A19        -0.3890
     484 C150      -57.5290  -43.7790  -15.1740 C.3      19 A19         0.0213
     485 C151      -57.0650  -42.6090  -14.3040 C.3      19 A19         0.1408
     486  N56      -56.6190  -41.4590  -15.0650 N.ar     19 A19        -0.2879
     487 C152      -55.7350  -41.4510  -16.1190 C.ar     19 A19         0.1003
     488  N57      -55.5610  -40.2510  -16.6410 N.ar     19 A19        -0.2306
     489 C153      -56.3810  -39.4300  -15.8570 C.ar     19 A19         0.1473
     490 C154      -56.6770  -38.0440  -15.8910 C.ar     19 A19         0.1472
     491  N58      -56.1870  -37.1920  -16.8010 N.pl3    19 A19        -0.3413
     492  N59      -57.5110  -37.5400  -14.9510 N.ar     19 A19        -0.2188
     493 C155      -58.0020  -38.3730  -14.0270 C.ar     19 A19         0.1205
     494  N60      -57.8750  -39.7000  -13.9480 N.ar     19 A19        -0.2159
     495 C156      -57.0160  -40.1640  -14.8750 C.ar     19 A19         0.1673
     496 H171      -53.7920  -44.7550  -13.5350 H        19 A19         0.0591
     497 H172      -54.6920  -46.2030  -14.1080 H        19 A19         0.0591
     498 H173      -56.0430  -44.8900  -12.4910 H        19 A19         0.0646
     499 H174      -56.8540  -45.8270  -14.9920 H        19 A19         0.0621
     500 H175      -59.0710  -45.4390  -14.1010 H        19 A19         0.2099
     501 H176      -57.8530  -42.3380  -13.5620 H        19 A19         0.0840
     502 H177      -55.2390  -42.3690  -16.4520 H        19 A19         0.1030
     503 H178      -56.4520  -36.2240  -16.7530 H        19 A19         0.1438
     504 H179      -55.5950  -37.4970  -17.5370 H        19 A19         0.1438
     505 H180      -58.6610  -37.9100  -13.2780 H        19 A19         0.1048
     506 H181      -58.6060  -43.7040  -15.4130 H        19 A19         0.0335
     507 H182      -56.9450  -43.8300  -16.1200 H        19 A19         0.0335
@<TRIPOS>BOND
       1      414      413 2
       2      415      413 1
       3      413      416 1
       4      413      389 1
       5      477      475 2
       6      433      417 1
       7      435      420 1
       8      403      385 1
       9      416      417 1
      10      382      381 2
      11      389      388 1
      12      504      491 1
      13      417      432 1
      14      417      418 1
      15      473      452 1
      16      442      422 1
      17      474      452 1
      18      469      455 1
      19      491      503 1
      20      491      490 1
      21      405      388 1
      22      420      421 1
      23      420      422 1
      24      420      418 1
      25      488      487 ar
      26      488      489 ar
      27      383      381 1
      28      385      384 1
      29      385      402 1
      30      385      386 1
      31      475      476 1
      32      475      451 1
      33      475      478 1
      34      381      384 1
      35      381      359 1
      36      440      431 1
      37      388      386 1
      38      388      390 1
      39      502      487 1
      40      421      443 1
      41      452      450 1
      42      452      453 1
      43      467      450 1
      44      422      441 1
      45      422      423 1
      46      439      430 1
      47      455      456 ar
      48      455      454 ar
      49      507      484 1
      50      487      486 ar
      51      456      457 ar
      52      451      450 1
      53      418      434 1
      54      418      419 1
      55      404      386 1
      56      386      387 1
      57      490      489 ar
      58      490      492 ar
      59      489      495 ar
      60      450      448 1
      61      470      459 1
      62      431      430 ar
      63      431      424 ar
      64      478      479 1
      65      445      443 2
      66      430      428 ar
      67      506      484 1
      68      412      390 1
      69      390      411 1
      70      390      391 1
      71      484      482 1
      72      484      485 1
      73      454      453 1
      74      454      463 ar
      75      359      358 1
      76      443      444 1
      77      443      446 1
      78      486      495 ar
      79      486      485 1
      80      453      468 1
      81      453      449 1
      82      407      393 1
      83      499      482 1
      84      419      423 1
      85      492      493 ar
      86      457      463 ar
      87      457      458 ar
      88      423      424 1
      89      423      436 1
      90      495      494 ar
      91      459      471 1
      92      459      458 1
      93      438      429 1
      94      424      425 ar
      95      373      358 1
      96      387      391 1
      97      448      449 1
      98      448      447 1
      99      448      466 1
     100      463      462 ar
     101      482      483 1
     102      482      480 1
     103      485      501 1
     104      485      481 1
     105      446      447 1
     106      428      429 1
     107      428      427 ar
     108      458      460 ar
     109      379      360 1
     110      479      497 1
     111      479      480 1
     112      479      496 1
     113      465      447 1
     114      358      360 1
     115      358      356 1
     116      393      392 ar
     117      393      394 ar
     118      500      483 1
     119      429      437 1
     120      391      392 1
     121      391      406 1
     122      493      494 ar
     123      493      505 1
     124      447      464 1
     125      392      401 ar
     126      481      480 1
     127      480      498 1
     128      360      380 1
     129      360      361 1
     130      425      427 ar
     131      425      426 2
     132      394      395 ar
     133      462      461 ar
     134      372      356 1
     135      460      461 ar
     136      371      355 1
     137      356      355 1
     138      356      357 1
     139      461      472 1
     140      374      361 1
     141      352      351 2
     142      401      395 ar
     143      401      400 ar
     144      395      396 ar
     145      355      354 1
     146      355      370 1
     147      361      357 1
     148      361      362 1
     149      354      351 1
     150      400      399 ar
     151      351      353 1
     152      351      327 1
     153      396      397 1
     154      396      398 ar
     155      409      397 1
     156      378      369 1
     157      362      369 ar
     158      362      363 ar
     159      397      408 1
     160      364      363 2
     161      399      398 ar
     162      399      410 1
     163      369      368 ar
     164      363      365 ar
     165      327      326 1
     166      344      328 1
     167      368      377 1
     168      368      366 ar
     169      365      366 ar
     170      326      342 1
     171      326      328 1
     172      326      324 1
     173      366      367 1
     174      328      343 1
     175      328      329 1
     176      345      329 1
     177      341      324 1
     178      329      325 1
     179      329      330 1
     180      332      331 2
     181      367      375 1
     182      367      376 1
     183      324      325 1
     184      324      323 1
     185      331      330 ar
     186      331      333 ar
     187      330      338 ar
     188      340      323 1
     189      323      322 1
     190      323      339 1
     191      322      319 1
     192      320      319 2
     193      333      346 1
     194      333      334 ar
     195      338      350 1
     196      338      336 ar
     197      319      321 1
     198      319      297 1
     199      336      334 ar
     200      336      337 1
     201      334      335 2
     202      347      337 1
     203      297      296 1
     204      337      349 1
     205      337      348 1
     206      317      298 1
     207      302      301 2
     208      312      299 1
     209      298      296 1
     210      298      299 1
     211      298      318 1
     212      296      311 1
     213      296      294 1
     214      285      275 1
     215      299      300 1
     216      299      295 1
     217      301      303 ar
     218      301      300 ar
     219      310      294 1
     220      286      275 1
     221      303      304 ar
     222      294      295 1
     223      294      293 1
     224      300      307 ar
     225      275      274 1
     226      284      273 1
     227      309      293 1
     228      274      273 ar
     229      274      276 ar
     230      304      305 1
     231      304      306 ar
     232      313      305 1
     233      307      316 1
     234      307      306 ar
     235      293      308 1
     236      293      292 1
     237      273      271 ar
     238      305      314 1
     239      306      315 1
     240      276      277 ar
     241      292      289 1
     242      271      272 2
     243      271      270 ar
     244      277      270 ar
     245      277      267 ar
     246      282      266 1
     247      290      289 2
     248      289      291 1
     249      289      264 1
     250      270      269 ar
     251      287      265 1
     252      267      266 1
     253      267      268 ar
     254      266      265 1
     255      266      262 1
     256      264      263 1
     257      250      242 1
     258       97       96 2
     259      265      263 1
     260      265      288 1
     261      251      242 1
     262      269      268 ar
     263       98       96 1
     264      242      241 1
     265      268      283 1
     266      262      261 1
     267       64       63 2
     268      263      261 1
     269      263      281 1
     270       96       99 1
     271       96       71 1
     272      209      208 2
     273      240      241 ar
     274      240      238 ar
     275      241      243 ar
     276      130      128 2
     277      280      261 1
     278       88       70 1
     279      261      260 1
     280      126      114 1
     281      119      103 1
     282      221      210 1
     283      239      238 2
     284       99      100 1
     285      238      237 ar
     286       86       67 1
     287      208      210 ar
     288      208      207 ar
     289       71       70 1
     290      189      177 1
     291       63       65 1
     292       63       66 1
     293       63       39 1
     294      117      100 1
     295      243      252 1
     296      243      244 ar
     297      255      235 1
     298      120      105 1
     299      125      114 1
     300       70       72 1
     301       70       68 1
     302      210      211 ar
     303       66       67 1
     304      188      177 1
     305      129      128 1
     306      114      124 1
     307      114      113 1
     308      128      104 1
     309      128      131 1
     310      177      176 1
     311      100      116 1
     312      100      101 1
     313      127      115 1
     314      237      244 ar
     315      237      236 1
     316       67       68 1
     317       67       85 1
     318      103      105 1
     319      103      104 1
     320      103      101 1
     321       94       72 1
     322      207      206 ar
     323      207      214 ar
     324      206      205 ar
     325       95       72 1
     326      244      253 1
     327      121      105 1
     328      222      212 1
     329      105      106 1
     330      260      259 1
     331      260      278 1
     332      260      279 1
     333       72       73 1
     334       39       38 1
     335      259      256 1
     336       68       87 1
     337       68       69 1
     338      235      254 1
     339      235      236 1
     340      235      233 1
     341      155      140 1
     342      211      212 1
     343      211      213 ar
     344      141      140 ar
     345      141      142 ar
     346      212      223 1
     347      131      132 1
     348      115      113 ar
     349      115      107 ar
     350      249      236 1
     351      113      111 ar
     352      236      232 1
     353      101      118 1
     354      101      102 1
     355      160      137 1
     356      174      175 ar
     357      174      173 ar
     358      176      175 ar
     359      176      178 ar
     360      140      139 ar
     361      214      213 ar
     362      214      204 ar
     363      205      220 1
     364      205      204 ar
     365      248      233 1
     366       54       38 1
     367      144      143 2
     368      233      234 1
     369      233      231 1
     370      175      181 ar
     371      153      135 1
     372       38       40 1
     373       38       36 1
     374      258      256 2
     375      106      107 1
     376      106      102 1
     377      106      122 1
     378      234      256 1
     379      256      257 1
     380       73       69 1
     381       73       89 1
     382       73       74 1
     383      204      203 1
     384       52       35 1
     385      178      179 ar
     386      107      108 ar
     387       56       40 1
     388      142      143 ar
     389      142      149 ar
     390       90       75 1
     391      187      173 1
     392      173      172 ar
     393      137      159 1
     394      137      135 1
     395      137      138 1
     396      111      112 2
     397      111      110 ar
     398      224      202 1
     399      143      145 ar
     400      225      202 1
     401      132      151 1
     402      132      150 1
     403      132      133 1
     404      232      231 1
     405       53       36 1
     406      139      149 ar
     407      139      138 1
     408       40       55 1
     409       40       41 1
     410      135      133 1
     411      135      136 1
     412       36       35 1
     413       36       37 1
     414      202      203 1
     415      202      200 1
     416       75       74 ar
     417       75       76 ar
     418      181      172 ar
     419      181      180 ar
     420       74       84 ar
     421      231      247 1
     422      231      230 1
     423       35       34 1
     424       35       51 1
     425      149      148 ar
     426      179      180 ar
     427      179      190 1
     428      203      219 1
     429      203      199 1
     430      138      134 1
     431      138      154 1
     432      108      110 ar
     433      108      109 2
     434      172      171 1
     435      110      123 1
     436       32       31 2
     437      228      226 2
     438      229      230 1
     439      229      226 1
     440      192      170 1
     441      133      134 1
     442      133      152 1
     443       34       31 1
     444       57       41 1
     445      136      161 1
     446      145      156 1
     447      145      146 ar
     448      191      170 1
     449       41       37 1
     450       41       42 1
     451       76       77 ar
     452      230      246 1
     453      230      245 1
     454       84       83 ar
     455       84       77 ar
     456      170      171 1
     457      170      168 1
     458       31       33 1
     459       31        6 1
     460      226      201 1
     461      226      227 1
     462      199      198 1
     463      148      146 ar
     464      200      218 1
     465      200      201 1
     466      200      198 1
     467      171      186 1
     468      171      167 1
     469       83       81 ar
     470      146      147 1
     471       77       78 ar
     472      164      161 1
     473      164      165 1
     474      195      193 2
     475       62       50 1
     476      161      163 2
     477      161      162 1
     478       42       50 ar
     479       42       43 ar
     480      198      217 1
     481      198      197 1
     482      167      166 1
     483      185      168 1
     484       93       82 1
     485       44       43 2
     486      196      193 1
     487      196      197 1
     488      168      166 1
     489      168      169 1
     490       50       48 ar
     491       81       82 1
     492       81       80 ar
     493        6        5 1
     494      147      157 1
     495      147      158 1
     496       43       45 ar
     497       23        7 1
     498       78       80 ar
     499       78       79 2
     500       82       92 1
     501      193      169 1
     502      193      194 1
     503      166      165 1
     504      166      184 1
     505      165      182 1
     506      165      183 1
     507      197      215 1
     508      197      216 1
     509       60       49 1
     510       80       91 1
     511       48       49 1
     512       48       46 ar
     513       45       46 ar
     514       45       58 1
     515        5        7 1
     516        5       21 1
     517        5        3 1
     518        7       22 1
     519        7        8 1
     520       24        8 1
     521       49       59 1
     522       49       61 1
     523       46       47 2
     524        8        9 1
     525        8        4 1
     526       11       10 2
     527       20        3 1
     528        3        4 1
     529        3        2 1
     530       10        9 ar
     531       10       12 ar
     532        9       17 ar
     533       19        2 1
     534        2        1 1
     535        2       18 1
     536       12       25 1
     537       12       13 ar
     538       17       29 1
     539       17       15 ar
     540        1       30 1
     541       15       13 ar
     542       15       16 1
     543       13       14 2
     544       28       16 1
     545       16       27 1
     546       16       26 1
