@<TRIPOS>MOLECULE
1z04_E_F.pdb
   507    546     16
SMALL
USER_CHARGES


@<TRIPOS>ATOM
       1  O95      -62.2660  -29.7240  -15.4740 O.3       4 T4         -0.3924
       2 C157      -63.4170  -30.5010  -15.0990 C.3       4 T4          0.0729
       3 C158      -63.2110  -31.5030  -13.9460 C.3       4 T4          0.1107
       4  O96      -62.4390  -32.6550  -14.4080 O.3       4 T4         -0.3483
       5 C159      -62.4940  -30.9650  -12.6920 C.3       4 T4          0.0982
       6  O97      -63.2030  -31.3090  -11.4970 O.3       4 T4         -0.3213
       7 C160      -61.1110  -31.6090  -12.7600 C.3       4 T4          0.0221
       8 C161      -61.3490  -32.9160  -13.5230 C.3       4 T4          0.1422
       9  N61      -60.2140  -33.3430  -14.3590 N.ar      4 T4         -0.2737
      10 C162      -59.7000  -34.6100  -14.2460 C.ar      4 T4          0.3313
      11  O98      -60.1390  -35.4440  -13.4620 O.2       4 T4         -0.2464
      12  N62      -58.6570  -34.8820  -15.0810 N.ar      4 T4         -0.2747
      13 C163      -58.1370  -34.0670  -16.0590 C.ar      4 T4          0.2568
      14  O99      -57.2310  -34.4770  -16.7710 O.2       4 T4         -0.2674
      15 C164      -58.7410  -32.7540  -16.1400 C.ar      4 T4          0.0302
      16 C165      -58.3700  -31.8470  -17.2740 C.3       4 T4         -0.0332
      17 C166      -59.7640  -32.4820  -15.3290 C.ar      4 T4          0.0199
      18 H183      -63.7780  -31.0780  -15.9830 H         4 T4          0.0584
      19 H184      -64.2320  -29.8040  -14.7980 H         4 T4          0.0584
      20 H185      -64.2040  -31.8860  -13.6260 H         4 T4          0.0646
      21 H186      -62.4050  -29.8560  -12.7910 H         4 T4          0.0628
      22 H187      -60.4440  -30.9280  -13.3270 H         4 T4          0.0335
      23 H188      -60.6500  -31.8080  -11.7760 H         4 T4          0.0335
      24 H189      -61.6930  -33.6930  -12.7990 H         4 T4          0.0840
      25 H190      -58.2860  -35.8240  -15.0160 H         4 T4          0.1734
      26 H191      -57.3160  -31.9890  -17.5980 H         4 T4          0.0280
      27 H192      -58.4950  -30.7780  -16.9960 H         4 T4          0.0280
      28 H193      -59.0230  -32.0500  -18.1520 H         4 T4          0.0280
      29 H194      -60.3920  -31.5900  -15.4410 H         4 T4          0.0816
      30 H195      -62.5940  -29.0990  -16.1270 H         4 T4          0.2095
      31  P16      -62.7410  -30.7820  -10.0930 P.3       5 T5          0.2130
      32 O100      -63.9360  -30.6320   -9.2380 O.3       5 T5         -0.4373
      33 O101      -61.9830  -29.5320  -10.2700 O.2       5 T5         -0.5172
      34 O102      -61.8090  -31.9000   -9.5080 O.3       5 T5         -0.3248
      35 C167      -62.2840  -33.2650   -9.4430 C.3       5 T5          0.0836
      36 C168      -61.1500  -34.2350   -9.0910 C.3       5 T5          0.1114
      37 O103      -60.2850  -34.3780  -10.2510 O.3       5 T5         -0.3483
      38 C169      -60.1850  -33.7560   -7.9680 C.3       5 T5          0.0983
      39 O104      -60.2760  -34.6000   -6.8220 O.3       5 T5         -0.3213
      40 C170      -58.8030  -33.8080   -8.6370 C.3       5 T5          0.0221
      41 C171      -59.0200  -34.7860   -9.7860 C.3       5 T5          0.1422
      42  N63      -58.0640  -34.6050  -10.8860 N.ar      5 T5         -0.2737
      43 C172      -57.3880  -35.6770  -11.4130 C.ar      5 T5          0.3313
      44 O105      -57.5530  -36.8310  -11.0220 O.2       5 T5         -0.2464
      45  N64      -56.5010  -35.3660  -12.4060 N.ar      5 T5         -0.2747
      46 C173      -56.2270  -34.1090  -12.9020 C.ar      5 T5          0.2568
      47 O106      -55.3390  -33.9540  -13.7330 O.2       5 T5         -0.2674
      48 C174      -57.0340  -33.0410  -12.3620 C.ar      5 T5          0.0302
      49 C175      -56.9690  -31.6810  -12.9890 C.3       5 T5         -0.0332
      50 C176      -57.9280  -33.3480  -11.4210 C.ar      5 T5          0.0199
      51 H196      -62.7210  -33.5980  -10.4170 H         5 T5          0.0591
      52 H197      -63.0760  -33.3510   -8.6630 H         5 T5          0.0591
      53 H198      -61.5470  -35.2410   -8.8360 H         5 T5          0.0646
      54 H199      -60.4440  -32.7070   -7.6930 H         5 T5          0.0628
      55 H200      -58.5790  -32.7870   -9.0050 H         5 T5          0.0335
      56 H201      -57.9790  -34.1380   -7.9850 H         5 T5          0.0335
      57 H202      -59.1030  -35.8340   -9.4070 H         5 T5          0.0840
      58 H203      -55.9540  -36.1470  -12.7470 H         5 T5          0.1734
      59 H204      -57.2740  -30.8860  -12.2710 H         5 T5          0.0280
      60 H205      -57.6580  -31.6220  -13.8580 H         5 T5          0.0280
      61 H206      -55.9450  -31.4460  -13.3510 H         5 T5          0.0280
      62 H207      -58.7370  -32.6640  -11.1320 H         5 T5          0.0816
      63  P17      -59.3330  -34.4860   -5.5810 P.3       6 G6          0.2130
      64 O107      -60.0950  -34.6960   -4.3400 O.3       6 G6         -0.4373
      65 O108      -58.5270  -33.2340   -5.6300 O.2       6 G6         -0.5172
      66 O109      -58.3270  -35.6810   -5.7930 O.3       6 G6         -0.3248
      67 C177      -58.8340  -36.9980   -6.1410 C.3       6 G6          0.0836
      68 C178      -57.7190  -38.0090   -6.4710 C.3       6 G6          0.1114
      69 O110      -57.0700  -37.6570   -7.7320 O.3       6 G6         -0.3484
      70 C179      -56.5940  -38.0390   -5.4170 C.3       6 G6          0.0983
      71 O111      -56.2030  -39.3680   -5.0490 O.3       6 G6         -0.3213
      72 C180      -55.4550  -37.3070   -6.1040 C.3       6 G6          0.0220
      73 C181      -55.6590  -37.7100   -7.5540 C.3       6 G6          0.1408
      74  N65      -55.0410  -36.7990   -8.5010 N.ar      6 G6         -0.2878
      75 C182      -55.3620  -35.4780   -8.6890 C.ar      6 G6          0.1004
      76  N66      -54.5930  -34.8790   -9.5840 N.ar      6 G6         -0.2286
      77 C183      -53.7360  -35.9090  -10.0030 C.ar      6 G6          0.1721
      78 C184      -52.6640  -35.8980  -10.9470 C.ar      6 G6          0.2803
      79 O112      -52.3180  -34.9280  -11.6200 O.2       6 G6         -0.2654
      80  N67      -52.0150  -37.1280  -10.9980 N.ar      6 G6         -0.2934
      81 C185      -52.3610  -38.2330  -10.2830 C.ar      6 G6          0.1950
      82  N68      -51.6070  -39.2930  -10.4300 N.pl3     6 G6         -0.3289
      83  N69      -53.3650  -38.2630   -9.4240 N.ar      6 G6         -0.1963
      84 C186      -53.9980  -37.0820   -9.3340 C.ar      6 G6          0.1711
      85 H208      -59.5070  -36.9540   -7.0290 H         6 G6          0.0591
      86 H209      -59.4130  -37.4170   -5.2840 H         6 G6          0.0591
      87 H210      -58.1380  -39.0330   -6.5760 H         6 G6          0.0646
      88 H211      -56.9660  -37.4690   -4.5310 H         6 G6          0.0628
      89 H212      -55.3320  -38.7660   -7.7060 H         6 G6          0.0840
      90 H213      -56.1860  -35.0290   -8.1260 H         6 G6          0.1030
      91 H214      -51.2670  -37.2220  -11.6690 H         6 G6          0.1716
      92 H215      -50.9100  -39.3860  -11.1500 H         6 G6          0.1451
      93 H216      -51.7380  -40.0060   -9.7530 H         6 G6          0.1451
      94 H217      -54.4520  -37.5790   -5.7330 H         6 G6          0.0335
      95 H218      -55.6200  -36.2170   -5.9850 H         6 G6          0.0335
      96  P18      -55.2160  -39.5350   -3.8230 P.3       7 T7          0.2130
      97 O113      -55.5830  -40.7680   -3.0990 O.2       7 T7         -0.5172
      98 O114      -55.1730  -38.2700   -3.0510 O.3       7 T7         -0.4373
      99 O115      -53.8120  -39.7320   -4.5160 O.3       7 T7         -0.3248
     100 C187      -53.5080  -40.9600   -5.2200 C.3       7 T7          0.0836
     101 C188      -52.0400  -41.0060   -5.6880 C.3       7 T7          0.1114
     102 O116      -51.8000  -39.9540   -6.6790 O.3       7 T7         -0.3483
     103 C189      -51.0020  -40.7510   -4.5640 C.3       7 T7          0.0983
     104 O117      -49.8050  -41.5170   -4.7160 O.3       7 T7         -0.3213
     105 C190      -50.6530  -39.2940   -4.7440 C.3       7 T7          0.0221
     106 C191      -50.6710  -39.1990   -6.2640 C.3       7 T7          0.1422
     107  N70      -50.8100  -37.8560   -6.8070 N.ar      7 T7         -0.2737
     108 C192      -50.0080  -37.4590   -7.8180 C.ar      7 T7          0.3313
     109 O118      -49.1260  -38.2170   -8.3350 O.2       7 T7         -0.2464
     110  N71      -50.1920  -36.2100   -8.2770 N.ar      7 T7         -0.2747
     111 C193      -51.1460  -35.3070   -7.8580 C.ar      7 T7          0.2568
     112 O119      -51.2640  -34.2360   -8.4550 O.2       7 T7         -0.2674
     113 C194      -51.9590  -35.7590   -6.7540 C.ar      7 T7          0.0302
     114 C195      -52.9000  -34.7940   -6.1000 C.3       7 T7         -0.0332
     115 C196      -51.7630  -37.0000   -6.2900 C.ar      7 T7          0.0199
     116 H219      -54.1620  -41.0660   -6.1190 H         7 T7          0.0591
     117 H220      -53.6820  -41.8450   -4.5620 H         7 T7          0.0591
     118 H221      -51.8180  -41.9890   -6.1520 H         7 T7          0.0646
     119 H222      -51.5000  -40.9100   -3.5750 H         7 T7          0.0628
     120 H223      -51.4420  -38.6730   -4.2770 H         7 T7          0.0335
     121 H224      -49.6750  -39.0240   -4.3090 H         7 T7          0.0335
     122 H225      -49.7760  -39.7420   -6.6550 H         7 T7          0.0840
     123 H226      -49.6090  -35.9520   -9.0600 H         7 T7          0.1734
     124 H227      -53.6140  -35.3280   -5.4360 H         7 T7          0.0280
     125 H228      -53.4970  -34.2330   -6.8510 H         7 T7          0.0280
     126 H229      -52.3430  -34.0610   -5.4760 H         7 T7          0.0280
     127 H230      -52.4320  -37.4740   -5.5620 H         7 T7          0.0816
     128  P19      -49.4570  -42.7140   -3.7780 P.3       8 G8          0.2130
     129 O120      -50.3710  -43.8390   -4.0690 O.2       8 G8         -0.5172
     130 O121      -49.3690  -42.2210   -2.3880 O.3       8 G8         -0.4373
     131 O122      -48.0100  -43.0750   -4.3070 O.3       8 G8         -0.3248
     132 C197      -47.8770  -43.5800   -5.6620 C.3       8 G8          0.0836
     133 C198      -46.5290  -43.2180   -6.3070 C.3       8 G8          0.1114
     134 O123      -46.6040  -41.8840   -6.9010 O.3       8 G8         -0.3484
     135 C199      -45.3250  -43.1810   -5.3480 C.3       8 G8          0.0983
     136 O124      -44.1660  -43.7780   -5.9290 O.3       8 G8         -0.3213
     137 C200      -45.1500  -41.6960   -5.0570 C.3       8 G8          0.0220
     138 C201      -45.5830  -41.0390   -6.3630 C.3       8 G8          0.1408
     139  N72      -46.1390  -39.6990   -6.1940 N.ar      8 G8         -0.2878
     140 C202      -47.0600  -39.3350   -5.2420 C.ar      8 G8          0.1004
     141  N73      -47.3640  -38.0590   -5.2940 N.ar      8 G8         -0.2286
     142 C203      -46.6360  -37.5720   -6.3720 C.ar      8 G8          0.1721
     143 C204      -46.6740  -36.3060   -7.0160 C.ar      8 G8          0.2803
     144 O125      -47.3460  -35.3160   -6.6760 O.2       8 G8         -0.2654
     145  N74      -45.8340  -36.2670   -8.1190 N.ar      8 G8         -0.2934
     146 C205      -45.0490  -37.3010   -8.5480 C.ar      8 G8          0.1950
     147  N75      -44.2850  -37.0630   -9.5820 N.pl3     8 G8         -0.3289
     148  N76      -44.9980  -38.4780   -7.9570 N.ar      8 G8         -0.1963
     149 C206      -45.8530  -38.5700   -6.9220 C.ar      8 G8          0.1711
     150 H231      -48.6850  -43.2130   -6.3430 H         8 G8          0.0591
     151 H232      -47.9510  -44.6900   -5.6330 H         8 G8          0.0591
     152 H233      -46.3050  -43.9250   -7.1330 H         8 G8          0.0646
     153 H234      -45.6030  -43.7260   -4.4170 H         8 G8          0.0628
     154 H235      -44.7370  -41.0470   -7.0910 H         8 G8          0.0840
     155 H236      -47.5030  -40.0710   -4.5630 H         8 G8          0.1030
     156 H237      -45.8120  -35.4070   -8.6410 H         8 G8          0.1716
     157 H238      -44.2880  -36.1890  -10.0710 H         8 G8          0.1451
     158 H239      -43.6030  -37.7620   -9.7640 H         8 G8          0.1451
     159 H240      -44.1400  -41.3810   -4.7480 H         8 G8          0.0335
     160 H241      -45.8550  -41.4420   -4.2340 H         8 G8          0.0335
     161  P20      -42.7690  -43.7610   -5.2040 P.3       9 A9          0.2130
     162 O126      -42.0750  -45.0270   -5.5190 O.2       9 A9         -0.5172
     163 O127      -42.9360  -43.4030   -3.7800 O.3       9 A9         -0.4373
     164 O128      -42.0360  -42.5680   -5.9550 O.3       9 A9         -0.3248
     165 C207      -41.9690  -42.6360   -7.4060 C.3       9 A9          0.0836
     166 C208      -41.1270  -41.5090   -8.0270 C.3       9 A9          0.1114
     167 O129      -41.7890  -40.2140   -7.8730 O.3       9 A9         -0.3484
     168 C209      -39.7390  -41.3550   -7.3830 C.3       9 A9          0.0983
     169 O130      -38.7190  -41.1360   -8.3570 O.3       9 A9         -0.3213
     170 C210      -39.9150  -40.1750   -6.4390 C.3       9 A9          0.0220
     171 C211      -40.9520  -39.3090   -7.1540 C.3       9 A9          0.1408
     172  N77      -41.8130  -38.5530   -6.2640 N.ar      9 A9         -0.2879
     173 C212      -42.4120  -39.0230   -5.1210 C.ar      9 A9          0.1003
     174  N78      -43.1520  -38.1270   -4.5060 N.ar      9 A9         -0.2306
     175 C213      -43.0380  -37.0020   -5.3230 C.ar      9 A9          0.1473
     176 C214      -43.6290  -35.7200   -5.2750 C.ar      9 A9          0.1472
     177  N79      -44.4350  -35.2980   -4.2960 N.pl3     9 A9         -0.3413
     178  N80      -43.3650  -34.8430   -6.2730 N.ar      9 A9         -0.2188
     179 C215      -42.5380  -35.2300   -7.2500 C.ar      9 A9          0.1205
     180  N81      -41.9370  -36.4040   -7.4170 N.ar      9 A9         -0.2159
     181 C216      -42.2330  -37.2580   -6.4160 C.ar      9 A9          0.1673
     182 H242      -42.9890  -42.5860   -7.8560 H         9 A9          0.0591
     183 H243      -41.5010  -43.5980   -7.7240 H         9 A9          0.0591
     184 H244      -40.9950  -41.6920   -9.1150 H         9 A9          0.0646
     185 H245      -39.5310  -42.2860   -6.8020 H         9 A9          0.0628
     186 H246      -40.4520  -38.6580   -7.9090 H         9 A9          0.0840
     187 H247      -42.2710  -40.0590   -4.7950 H         9 A9          0.1030
     188 H248      -44.5500  -35.8320   -3.4640 H         9 A9          0.1438
     189 H249      -44.8750  -34.4000   -4.3650 H         9 A9          0.1438
     190 H250      -42.3460  -34.4890   -8.0360 H         9 A9          0.1048
     191 H251      -38.9900  -39.6140   -6.2150 H         9 A9          0.0335
     192 H252      -40.3250  -40.5780   -5.4880 H         9 A9          0.0335
     193  P21      -37.2020  -40.9940   -7.9400 P.3      10 G10         0.2130
     194 O131      -36.3680  -41.5470   -9.0300 O.2      10 G10        -0.5172
     195 O132      -37.0140  -41.5440   -6.5780 O.3      10 G10        -0.4373
     196 O133      -37.0180  -39.4230   -7.8840 O.3      10 G10        -0.3248
     197 C217      -37.4550  -38.5950   -8.9920 C.3      10 G10         0.0836
     198 C218      -37.5970  -37.1120   -8.6070 C.3      10 G10         0.1114
     199 O134      -38.5050  -36.9660   -7.4870 O.3      10 G10        -0.3484
     200 C219      -36.3010  -36.4570   -8.0850 C.3      10 G10         0.0983
     201 O135      -35.7510  -35.5720   -9.0680 O.3      10 G10        -0.3213
     202 C220      -36.7580  -35.6920   -6.8270 C.3      10 G10         0.0220
     203 C221      -38.2810  -35.6720   -6.9670 C.3      10 G10         0.1408
     204  N82      -39.0050  -35.5790   -5.7000 N.ar     10 G10        -0.2878
     205 C222      -39.0170  -36.5480   -4.7240 C.ar     10 G10         0.1004
     206  N83      -39.7350  -36.2200   -3.6750 N.ar     10 G10        -0.2286
     207 C223      -40.2290  -34.9490   -3.9970 C.ar     10 G10         0.1721
     208 C224      -41.0680  -34.0610   -3.2470 C.ar     10 G10         0.2803
     209 O136      -41.5570  -34.2330   -2.1370 O.2      10 G10        -0.2654
     210  N84      -41.2970  -32.8830   -3.9510 N.ar     10 G10        -0.2934
     211 C225      -40.8210  -32.5880   -5.1930 C.ar     10 G10         0.1950
     212  N85      -41.1750  -31.4300   -5.6930 N.pl3    10 G10        -0.3289
     213  N86      -40.0600  -33.4080   -5.9050 N.ar     10 G10        -0.1963
     214 C226      -39.7910  -34.5510   -5.2430 C.ar     10 G10         0.1711
     215 H253      -38.4440  -38.9200   -9.3930 H        10 G10         0.0591
     216 H254      -36.7140  -38.6680   -9.8200 H        10 G10         0.0591
     217 H255      -37.9930  -36.5150   -9.4540 H        10 G10         0.0646
     218 H256      -35.6030  -37.2840   -7.8120 H        10 G10         0.0628
     219 H257      -38.6190  -34.9230   -7.7200 H        10 G10         0.0840
     220 H258      -38.4890  -37.4950   -4.8760 H        10 G10         0.1030
     221 H259      -41.8600  -32.2020   -3.4700 H        10 G10         0.1716
     222 H260      -41.6750  -30.7390   -5.1600 H        10 G10         0.1451
     223 H261      -40.9170  -31.2570   -6.6380 H        10 G10         0.1451
     224 H262      -36.3510  -34.6630   -6.7750 H        10 G10         0.0335
     225 H263      -36.4440  -36.2670   -5.9320 H        10 G10         0.0335
     226  P22      -34.2250  -35.1450   -8.9730 P.3      11 C11         0.2130
     227 O137      -33.7720  -34.7790  -10.3350 O.2      11 C11        -0.5172
     228 O138      -33.4610  -36.1970   -8.2630 O.3      11 C11        -0.4373
     229 O139      -34.2800  -33.8460   -8.0650 O.3      11 C11        -0.3248
     230 C227      -34.7170  -32.5830   -8.6410 C.3      11 C11         0.0836
     231 C228      -35.0510  -31.5080   -7.5840 C.3      11 C11         0.1114
     232 O140      -35.9900  -32.0360   -6.6110 O.3      11 C11        -0.3483
     233 C229      -33.8660  -31.1260   -6.6910 C.3      11 C11         0.0983
     234 O141      -33.1150  -30.0370   -7.2520 O.3      11 C11        -0.3213
     235 C230      -34.5330  -30.6830   -5.3820 C.3      11 C11         0.0221
     236 C231      -36.0030  -31.1440   -5.5050 C.3      11 C11         0.1423
     237  N87      -36.5060  -31.9050   -4.3460 N.ar     11 C11        -0.2725
     238 C232      -37.6280  -31.5280   -3.6060 C.ar     11 C11         0.3521
     239 O142      -38.2510  -30.4940   -3.9090 O.2      11 C11        -0.2444
     240  N88      -38.0170  -32.2650   -2.5490 N.ar     11 C11        -0.1783
     241 C233      -37.3370  -33.3780   -2.2230 C.ar     11 C11         0.1230
     242  N89      -37.7110  -34.0380   -1.1410 N.pl3    11 C11        -0.3430
     243 C234      -36.2160  -33.8150   -2.9810 C.ar     11 C11        -0.0056
     244 C235      -35.8290  -33.0550   -4.0180 C.ar     11 C11         0.0151
     245 H264      -35.6290  -32.7220   -9.2680 H        11 C11         0.0591
     246 H265      -33.9110  -32.1680   -9.2920 H        11 C11         0.0591
     247 H266      -35.4710  -30.5870   -8.0420 H        11 C11         0.0646
     248 H267      -33.2760  -32.0610   -6.5350 H        11 C11         0.0628
     249 H268      -36.6460  -30.2740   -5.7750 H        11 C11         0.0840
     250 H269      -38.4910  -33.6800   -0.6280 H        11 C11         0.1437
     251 H270      -37.1150  -34.7160   -0.7060 H        11 C11         0.1437
     252 H271      -35.6990  -34.7280   -2.6930 H        11 C11         0.0666
     253 H272      -34.9890  -33.3060   -4.6760 H        11 C11         0.0812
     254 H273      -34.5160  -29.5780   -5.2930 H        11 C11         0.0335
     255 H274      -33.9980  -31.1140   -4.5150 H        11 C11         0.0335
     256  P23      -31.5470  -30.0940   -7.3990 P.3      12 G12         0.2130
     257 O143      -31.0260  -28.6970   -7.4110 O.3      12 G12        -0.4373
     258 O144      -31.1590  -30.9460   -8.5410 O.2      12 G12        -0.5172
     259 O145      -31.0820  -30.7780   -6.0280 O.3      12 G12        -0.3248
     260 C236      -30.8770  -29.8370   -4.9430 C.3      12 G12         0.0836
     261 C237      -30.5960  -30.4500   -3.5680 C.3      12 G12         0.1114
     262 O146      -31.6980  -31.2490   -3.0970 O.3      12 G12        -0.3484
     263 C238      -29.3940  -31.4150   -3.4550 C.3      12 G12         0.0983
     264 O147      -28.2760  -30.7210   -2.8910 O.3      12 G12        -0.3213
     265 C239      -29.9600  -32.5530   -2.5650 C.3      12 G12         0.0220
     266 C240      -31.1900  -31.8820   -1.9530 C.3      12 G12         0.1408
     267  N90      -32.2270  -32.7560   -1.4330 N.ar     12 G12        -0.2878
     268 C241      -32.5800  -33.9840   -1.9270 C.ar     12 G12         0.1004
     269  N91      -33.5630  -34.5370   -1.2600 N.ar     12 G12        -0.2286
     270 C242      -33.8830  -33.5930   -0.2790 C.ar     12 G12         0.1721
     271 C243      -34.8750  -33.6100    0.7450 C.ar     12 G12         0.2803
     272 O148      -35.6910  -34.5060    0.9730 O.2      12 G12        -0.2654
     273  N92      -34.8620  -32.4450    1.4950 N.ar     12 G12        -0.2934
     274 C244      -34.0090  -31.3970    1.3110 C.ar     12 G12         0.1950
     275  N93      -34.1420  -30.3830    2.1380 N.pl3    12 G12        -0.3289
     276  N94      -33.0890  -31.3640    0.3580 N.ar     12 G12        -0.1963
     277 C245      -33.0720  -32.4860   -0.3840 C.ar     12 G12         0.1711
     278 H275      -31.7630  -29.1640   -4.8130 H        12 G12         0.0591
     279 H276      -29.9830  -29.2250   -5.1870 H        12 G12         0.0591
     280 H277      -30.4530  -29.6330   -2.8290 H        12 G12         0.0646
     281 H278      -29.1530  -31.7890   -4.4780 H        12 G12         0.0628
     282 H279      -30.8880  -31.1030   -1.2170 H        12 G12         0.0840
     283 H280      -32.0820  -34.4250   -2.7950 H        12 G12         0.1030
     284 H281      -35.5480  -32.3940    2.2310 H        12 G12         0.1716
     285 H282      -34.8110  -30.4060    2.8880 H        12 G12         0.1451
     286 H283      -33.4560  -29.6640    2.0930 H        12 G12         0.1451
     287 H284      -29.2780  -32.9320   -1.7860 H        12 G12         0.0335
     288 H285      -30.2420  -33.3920   -3.2360 H        12 G12         0.0335
     289  P24      -27.0340  -31.3990   -2.2400 P.3      13 C13         0.2130
     290 O149      -25.8750  -30.4820   -2.3420 O.3      13 C13        -0.4373
     291 O150      -26.8530  -32.7600   -2.7790 O.2      13 C13        -0.5172
     292 O151      -27.4450  -31.4860   -0.7240 O.3      13 C13        -0.3248
     293 C246      -27.3200  -30.2620    0.0570 C.3      13 C13         0.0836
     294 C247      -28.2620  -30.1760    1.2660 C.3      13 C13         0.1114
     295 O152      -29.5770  -30.7180    0.9970 O.3      13 C13        -0.3483
     296 C248      -27.7730  -30.9370    2.4960 C.3      13 C13         0.0983
     297 O153      -26.7790  -30.1550    3.1550 O.3      13 C13        -0.3213
     298 C249      -29.0670  -30.9710    3.2870 C.3      13 C13         0.0221
     299 C250      -30.1330  -31.2060    2.2160 C.3      13 C13         0.1423
     300  N95      -30.5650  -32.6090    2.0600 N.ar     13 C13        -0.2725
     301 C251      -31.5810  -33.0740    2.8900 C.ar     13 C13         0.3521
     302 O154      -32.0790  -32.3230    3.7330 O.2      13 C13        -0.2444
     303  N96      -32.0310  -34.3350    2.7470 N.ar     13 C13        -0.1783
     304 C252      -31.4830  -35.1480    1.8450 C.ar     13 C13         0.1230
     305  N97      -32.0140  -36.3490    1.7080 N.pl3    13 C13        -0.3430
     306 C253      -30.3760  -34.7360    1.0410 C.ar     13 C13        -0.0056
     307 C254      -29.9520  -33.4650    1.1750 C.ar     13 C13         0.0151
     308 H286      -27.5450  -29.3510   -0.5460 H        13 C13         0.0591
     309 H287      -26.2740  -30.1640    0.4310 H        13 C13         0.0591
     310 H288      -28.4030  -29.1150    1.5650 H        13 C13         0.0646
     311 H289      -27.4160  -31.9420    2.1760 H        13 C13         0.0628
     312 H290      -31.0130  -30.5550    2.4340 H        13 C13         0.0840
     313 H291      -32.8920  -36.5130    2.1730 H        13 C13         0.1437
     314 H292      -31.6750  -37.0120    1.0410 H        13 C13         0.1437
     315 H293      -29.9350  -35.4360    0.3380 H        13 C13         0.0666
     316 H294      -29.1440  -33.0260    0.5750 H        13 C13         0.0812
     317 H295      -29.2690  -29.9760    3.7330 H        13 C13         0.0335
     318 H296      -29.0730  -31.7250    4.0920 H        13 C13         0.0335
     319  P25      -25.9260  -30.7160    4.3400 P.3      14 T14         0.2130
     320 O155      -24.9210  -29.6920    4.6830 O.3      14 T14        -0.4373
     321 O156      -25.4250  -32.0720    4.0270 O.2      14 T14        -0.5172
     322 O157      -26.9470  -30.8360    5.5200 O.3      14 T14        -0.3248
     323 C255      -27.6240  -29.7000    6.0980 C.3      14 T14         0.0836
     324 C256      -28.5360  -30.1070    7.2670 C.3      14 T14         0.1114
     325 O158      -29.5170  -31.1110    6.8710 O.3      14 T14        -0.3483
     326 C257      -27.7190  -30.7180    8.4090 C.3      14 T14         0.0983
     327 O159      -28.1120  -30.2100    9.6850 O.3      14 T14        -0.3213
     328 C258      -27.9700  -32.2110    8.2750 C.3      14 T14         0.0221
     329 C259      -29.3770  -32.2770    7.6740 C.3      14 T14         0.1422
     330  N98      -29.6100  -33.4200    6.7880 N.ar     14 T14        -0.2737
     331 C260      -30.7560  -34.1680    6.9240 C.ar     14 T14         0.3313
     332 O160      -31.6170  -33.9340    7.7610 O.2      14 T14        -0.2464
     333  N99      -30.8540  -35.2060    6.0510 N.ar     14 T14        -0.2747
     334 C261      -29.9660  -35.5720    5.0620 C.ar     14 T14         0.2568
     335 O161      -30.1570  -36.5880    4.4240 O.2      14 T14        -0.2674
     336 C262      -28.8460  -34.6630    4.9010 C.ar     14 T14         0.0302
     337 C263      -27.7990  -34.9540    3.8630 C.3      14 T14        -0.0332
     338 C264      -28.7090  -33.6750    5.7760 C.ar     14 T14         0.0199
     339 H297      -28.2550  -29.1830    5.3470 H        14 T14         0.0591
     340 H298      -26.8820  -28.9670    6.4910 H        14 T14         0.0591
     341 H299      -29.1010  -29.2370    7.6560 H        14 T14         0.0646
     342 H300      -26.6450  -30.4920    8.2030 H        14 T14         0.0628
     343 H301      -27.2060  -32.6210    7.5850 H        14 T14         0.0335
     344 H302      -27.9040  -32.7510    9.2330 H        14 T14         0.0335
     345 H303      -30.1210  -32.1900    8.5030 H        14 T14         0.0840
     346 H304      -31.6530  -35.8180    6.2050 H        14 T14         0.1734
     347 H305      -28.2480  -35.3100    2.9110 H        14 T14         0.0280
     348 H306      -27.0970  -35.7380    4.2200 H        14 T14         0.0280
     349 H307      -27.1950  -34.0440    3.6320 H        14 T14         0.0280
     350 H308      -27.9230  -32.9160    5.6700 H        14 T14         0.0816
     351  P26      -27.2380  -30.5530   10.9580 P.3      15 C15         0.2130
     352 O162      -27.3560  -29.4050   11.8850 O.3      15 C15        -0.4373
     353 O163      -25.8730  -30.9240   10.5210 O.2      15 C15        -0.5172
     354 O164      -27.9600  -31.8370   11.5650 O.3      15 C15        -0.3248
     355 C265      -29.3570  -31.7490   11.9360 C.3      15 C15         0.0836
     356 C266      -29.9390  -33.0860   12.4520 C.3      15 C15         0.1114
     357 O165      -30.2610  -33.9610   11.3220 O.3      15 C15        -0.3483
     358 C267      -29.0310  -33.9360   13.3820 C.3      15 C15         0.0983
     359 O166      -29.7230  -34.4030   14.5430 O.3      15 C15        -0.3213
     360 C268      -28.6150  -35.0960   12.4870 C.3      15 C15         0.0221
     361 C269      -29.8680  -35.2940   11.6420 C.3      15 C15         0.1423
     362 N100      -29.6370  -36.0300   10.3890 N.ar     15 C15        -0.2725
     363 C270      -30.2730  -37.2370   10.0930 C.ar     15 C15         0.3521
     364 O167      -31.0830  -37.7190   10.8880 O.2      15 C15        -0.2444
     365 N101      -29.9780  -37.8790    8.9380 N.ar     15 C15        -0.1783
     366 C271      -29.0810  -37.3650    8.0960 C.ar     15 C15         0.1230
     367 N102      -28.7710  -38.0550    7.0090 N.pl3    15 C15        -0.3430
     368 C272      -28.4300  -36.1250    8.3690 C.ar     15 C15        -0.0056
     369 C273      -28.7320  -35.5010    9.5160 C.ar     15 C15         0.0151
     370 H309      -29.9830  -31.4150   11.0730 H        15 C15         0.0591
     371 H310      -29.4740  -30.9980   12.7520 H        15 C15         0.0591
     372 H311      -30.8880  -32.8890   12.9940 H        15 C15         0.0646
     373 H312      -28.1440  -33.3240   13.6660 H        15 C15         0.0628
     374 H313      -30.6800  -35.7370   12.2670 H        15 C15         0.0840
     375 H314      -29.3170  -38.8640    6.7740 H        15 C15         0.1437
     376 H315      -28.0400  -37.7450    6.3990 H        15 C15         0.1437
     377 H316      -27.7530  -35.6880    7.6440 H        15 C15         0.0666
     378 H317      -28.3190  -34.5330    9.8170 H        15 C15         0.0812
     379 H318      -28.3290  -36.0120   13.0290 H        15 C15         0.0335
     380 H319      -27.7570  -34.7620   11.8680 H        15 C15         0.0335
     381  P27      -28.9800  -35.1430   15.7240 P.3      16 A16         0.2130
     382 O168      -29.1470  -34.3430   16.9540 O.3      16 A16        -0.4373
     383 O169      -27.6080  -35.5240   15.3260 O.2      16 A16        -0.5172
     384 O170      -29.8170  -36.4750   15.8610 O.3      16 A16        -0.3248
     385 C274      -31.2440  -36.4260   16.0890 C.3      16 A16         0.0836
     386 C275      -31.8990  -37.8150   15.9720 C.3      16 A16         0.1114
     387 O171      -31.6960  -38.3700   14.6350 O.3      16 A16        -0.3484
     388 C276      -31.2830  -38.8370   16.9440 C.3      16 A16         0.0983
     389 O172      -32.2500  -39.7440   17.4760 O.3      16 A16        -0.3213
     390 C277      -30.2470  -39.5380   16.0910 C.3      16 A16         0.0220
     391 C278      -30.8840  -39.5380   14.7020 C.3      16 A16         0.1408
     392 N103      -29.9290  -39.4720   13.6080 N.ar     16 A16        -0.2879
     393 C279      -28.8650  -38.6070   13.4650 C.ar     16 A16         0.1003
     394 N104      -28.1530  -38.8150   12.3740 N.ar     16 A16        -0.2306
     395 C280      -28.8380  -39.8580   11.7480 C.ar     16 A16         0.1473
     396 C281      -28.6270  -40.5470   10.5340 C.ar     16 A16         0.1472
     397 N105      -27.6690  -40.2270    9.6520 N.pl3    16 A16        -0.3413
     398 N106      -29.4510  -41.5670   10.2140 N.ar     16 A16        -0.2188
     399 C282      -30.4350  -41.8820   11.0670 C.ar     16 A16         0.1205
     400 N107      -30.7500  -41.2910   12.2170 N.ar     16 A16        -0.2159
     401 C283      -29.9200  -40.2740   12.4980 C.ar     16 A16         0.1673
     402 H320      -31.7460  -35.7540   15.3530 H        16 A16         0.0591
     403 H321      -31.4440  -36.0350   17.1140 H        16 A16         0.0591
     404 H322      -32.9870  -37.7490   16.1690 H        16 A16         0.0646
     405 H323      -30.7930  -38.2690   17.7670 H        16 A16         0.0628
     406 H324      -31.5720  -40.4130   14.6110 H        16 A16         0.0840
     407 H325      -28.6620  -37.8310   14.2140 H        16 A16         0.1030
     408 H326      -27.2790  -39.3170    9.7030 H        16 A16         0.1438
     409 H327      -27.6770  -40.7110    8.7740 H        16 A16         0.1438
     410 H328      -31.0790  -42.7220   10.7750 H        16 A16         0.1048
     411 H329      -30.0040  -40.5470   16.4450 H        16 A16         0.0335
     412 H330      -29.3170  -38.9300   16.1060 H        16 A16         0.0335
     413  P28      -31.8860  -40.8340   18.5570 P.3      17 C17         0.2130
     414 O173      -32.7860  -40.6690   19.7170 O.3      17 C17        -0.4373
     415 O174      -30.4240  -40.8220   18.7960 O.2      17 C17        -0.5172
     416 O175      -32.2220  -42.1880   17.8090 O.3      17 C17        -0.3248
     417 C284      -33.4920  -42.3850   17.1440 C.3      17 C17         0.0836
     418 C285      -33.4540  -43.5440   16.1260 C.3      17 C17         0.1114
     419 O176      -32.4780  -43.2700   15.0760 O.3      17 C17        -0.3483
     420 C286      -33.0530  -44.9010   16.7360 C.3      17 C17         0.0983
     421 O177      -33.8390  -45.9860   16.2290 O.3      17 C17        -0.3213
     422 C287      -31.5900  -45.0460   16.3540 C.3      17 C17         0.0221
     423 C288      -31.5260  -44.3370   15.0000 C.3      17 C17         0.1423
     424 N108      -30.2150  -43.7550   14.6900 N.ar     17 C17        -0.2725
     425 C289      -29.5150  -44.0650   13.5280 C.ar     17 C17         0.3521
     426 O178      -29.9830  -44.8830   12.7280 O.2      17 C17        -0.2444
     427 N109      -28.3230  -43.4780   13.2880 N.ar     17 C17        -0.1783
     428 C290      -27.8120  -42.6200   14.1750 C.ar     17 C17         0.1230
     429 N110      -26.6920  -41.9960   13.8460 N.pl3    17 C17        -0.3430
     430 C291      -28.4720  -42.3330   15.4020 C.ar     17 C17        -0.0056
     431 C292      -29.6650  -42.9100   15.6160 C.ar     17 C17         0.0151
     432 H331      -33.8150  -41.4720   16.5890 H        17 C17         0.0591
     433 H332      -34.2700  -42.6150   17.9060 H        17 C17         0.0591
     434 H333      -34.4480  -43.6590   15.6450 H        17 C17         0.0646
     435 H334      -33.1630  -44.8000   17.8430 H        17 C17         0.0628
     436 H335      -31.9020  -45.0270   14.2060 H        17 C17         0.0840
     437 H336      -26.2550  -42.3000   12.9920 H        17 C17         0.1437
     438 H337      -26.2590  -41.3300   14.4400 H        17 C17         0.1437
     439 H338      -28.0390  -41.6260   16.1050 H        17 C17         0.0666
     440 H339      -30.2870  -42.6970   16.4930 H        17 C17         0.0812
     441 H340      -31.2310  -46.0860   16.2840 H        17 C17         0.0335
     442 H341      -30.9950  -44.5150   17.1250 H        17 C17         0.0335
     443  P29      -33.7690  -47.3880   16.9530 P.3      18 A18         0.2130
     444 O179      -35.0310  -48.1090   16.6880 O.2      18 A18        -0.5172
     445 O180      -33.3750  -47.1840   18.3640 O.3      18 A18        -0.4373
     446 O181      -32.5830  -48.1200   16.2120 O.3      18 A18        -0.3248
     447 C293      -32.7100  -48.5590   14.8410 C.3      18 A18         0.0836
     448 C294      -31.4130  -49.2300   14.3530 C.3      18 A18         0.1114
     449 O182      -30.3930  -48.2010   14.1050 O.3      18 A18        -0.3484
     450 C295      -30.7520  -50.1830   15.3980 C.3      18 A18         0.0983
     451 O183      -30.1900  -51.3700   14.8250 O.3      18 A18        -0.3213
     452 C296      -29.6070  -49.3400   15.9220 C.3      18 A18         0.0220
     453 C297      -29.1710  -48.6960   14.6100 C.3      18 A18         0.1408
     454 N111      -28.2380  -47.5940   14.7440 N.ar     18 A18        -0.2879
     455 C298      -28.2180  -46.6570   15.7430 C.ar     18 A18         0.1003
     456 N112      -27.2370  -45.7880   15.6380 N.ar     18 A18        -0.2306
     457 C299      -26.5970  -46.1690   14.4560 C.ar     18 A18         0.1473
     458 C300      -25.5030  -45.6260   13.7450 C.ar     18 A18         0.1472
     459 N113      -24.7940  -44.5680   14.1660 N.pl3    18 A18        -0.3413
     460 N114      -25.1270  -46.2150   12.5870 N.ar     18 A18        -0.2188
     461 C301      -25.7930  -47.3060   12.1880 C.ar     18 A18         0.1205
     462 N115      -26.8190  -47.9220   12.7800 N.ar     18 A18        -0.2159
     463 C302      -27.2030  -47.2770   13.8960 C.ar     18 A18         0.1673
     464 H342      -32.9450  -47.7050   14.1620 H        18 A18         0.0591
     465 H343      -33.5360  -49.3060   14.7570 H        18 A18         0.0591
     466 H344      -31.5960  -49.7940   13.4130 H        18 A18         0.0646
     467 H345      -31.4780  -50.4030   16.2200 H        18 A18         0.0628
     468 H346      -28.8060  -49.4610   13.8850 H        18 A18         0.0840
     469 H347      -28.9760  -46.6600   16.5320 H        18 A18         0.1030
     470 H348      -24.7310  -44.3810   15.1410 H        18 A18         0.1438
     471 H349      -24.0560  -44.2160   13.5860 H        18 A18         0.1438
     472 H350      -25.4410  -47.7600   11.2520 H        18 A18         0.1048
     473 H351      -28.8270  -49.9470   16.4130 H        18 A18         0.0335
     474 H352      -30.0130  -48.5910   16.6360 H        18 A18         0.0335
     475  P30      -31.0820  -52.6640   14.7430 P.3      19 A19         0.2130
     476 O184      -32.3320  -52.3460   14.0220 O.2      19 A19        -0.5172
     477 O185      -31.1720  -53.2780   16.0830 O.3      19 A19        -0.4373
     478 O186      -30.1830  -53.5820   13.8170 O.3      19 A19        -0.3248
     479 C303      -29.9640  -53.2090   12.4340 C.3      19 A19         0.0835
     480 C304      -28.5080  -53.4490   12.0070 C.3      19 A19         0.1107
     481 O187      -27.7020  -52.2820   12.3480 O.3      19 A19        -0.3484
     482 C305      -27.8160  -54.6370   12.7140 C.3      19 A19         0.0877
     483 O188      -27.0040  -55.4580   11.8740 O.3      19 A19        -0.3890
     484 C306      -26.9510  -53.9780   13.7680 C.3      19 A19         0.0213
     485 C307      -26.5460  -52.6860   13.0570 C.3      19 A19         0.1408
     486 N116      -26.1790  -51.5960   13.9380 N.ar     19 A19        -0.2879
     487 C308      -26.8400  -51.1980   15.0720 C.ar     19 A19         0.1003
     488 N117      -26.2610  -50.1880   15.6890 N.ar     19 A19        -0.2306
     489 C309      -25.1750  -49.8870   14.8660 C.ar     19 A19         0.1473
     490 C310      -24.1680  -48.8970   14.9300 C.ar     19 A19         0.1472
     491 N118      -24.0670  -47.9710   15.8940 N.pl3    19 A19        -0.3413
     492 N119      -23.2310  -48.8640   13.9560 N.ar     19 A19        -0.2188
     493 C311      -23.3070  -49.7640   12.9710 C.ar     19 A19         0.1205
     494 N120      -24.1770  -50.7640   12.8180 N.ar     19 A19        -0.2159
     495 C312      -25.1190  -50.7410   13.7820 C.ar     19 A19         0.1673
     496 H353      -30.2230  -52.1410   12.2180 H        19 A19         0.0591
     497 H354      -30.6230  -53.8390   11.7960 H        19 A19         0.0591
     498 H355      -28.4360  -53.5840   10.9080 H        19 A19         0.0646
     499 H356      -28.6020  -55.2690   13.1890 H        19 A19         0.0621
     500 H357      -26.4510  -56.0240   12.4180 H        19 A19         0.2099
     501 H358      -25.7650  -52.8890   12.2890 H        19 A19         0.0840
     502 H359      -27.7630  -51.6950   15.3910 H        19 A19         0.1030
     503 H360      -24.6880  -47.9410   16.6690 H        19 A19         0.1438
     504 H361      -23.3720  -47.2540   15.7930 H        19 A19         0.1438
     505 H362      -22.5210  -49.6950   12.2070 H        19 A19         0.1048
     506 H363      -26.0760  -54.5830   14.0700 H        19 A19         0.0335
     507 H364      -27.5850  -53.7650   14.6580 H        19 A19         0.0335
@<TRIPOS>BOND
       1       28       16 1
       2       26       16 1
       3       16       27 1
       4       16       15 1
       5       14       13 2
       6       15       13 ar
       7       15       17 ar
       8       30        1 1
       9       13       12 ar
      10       18        2 1
      11        1        2 1
      12       29       17 1
      13       17        9 ar
      14        2       19 1
      15        2        3 1
      16       12       25 1
      17       12       10 ar
      18        4        3 1
      19        4        8 1
      20        9       10 ar
      21        9        8 1
      22       10       11 2
      23        3       20 1
      24        3        5 1
      25       60       49 1
      26       47       46 2
      27        8       24 1
      28        8        7 1
      29       61       49 1
      30       22        7 1
      31       49       48 1
      32       49       59 1
      33       46       45 ar
      34       46       48 ar
      35       21        5 1
      36        7        5 1
      37        7       23 1
      38       58       45 1
      39        5        6 1
      40       45       43 ar
      41       48       50 ar
      42       91       80 1
      43       79       78 2
      44        6       31 1
      45       50       62 1
      46       50       42 ar
      47       43       44 2
      48       43       42 ar
      49       92       82 1
      50       80       78 ar
      51       80       81 ar
      52       78       77 ar
      53       42       41 1
      54       82       81 1
      55       82       93 1
      56       51       35 1
      57      227      226 2
      58       81       83 ar
      59       33       31 2
      60       37       41 1
      61       37       36 1
      62       31       34 1
      63       31       32 1
      64      157      147 1
      65       77       76 ar
      66       77       84 ar
      67      216      197 1
      68       41       57 1
      69       41       40 1
      70      158      147 1
      71       76       75 ar
      72      147      146 1
      73       34       35 1
      74      217      198 1
      75       35       36 1
      76       35       52 1
      77       83       84 ar
      78      215      197 1
      79       84       74 ar
      80      246      230 1
      81      245      230 1
      82      184      166 1
      83       36       53 1
      84       36       38 1
      85      201      226 1
      86      201      200 1
      87      123      110 1
      88      194      193 2
      89       55       40 1
      90      197      198 1
      91      197      196 1
      92      226      228 1
      93      226      229 1
      94       75       74 ar
      95       75       90 1
      96      156      145 1
      97      230      229 1
      98      230      231 1
      99       40       56 1
     100       40       38 1
     101      198      200 1
     102      198      199 1
     103      146      145 ar
     104      146      148 ar
     105      258      256 2
     106       74       73 1
     107      112      111 2
     108      169      193 1
     109      169      168 1
     110      109      108 2
     111      110      111 ar
     112      110      108 ar
     113      145      143 ar
     114      200      218 1
     115      200      202 1
     116      247      231 1
     117      190      179 1
     118      166      167 1
     119      166      165 1
     120      166      168 1
     121       38       54 1
     122       38       39 1
     123      148      149 ar
     124      193      196 1
     125      193      195 1
     126      186      171 1
     127      167      171 1
     128      111      113 ar
     129      182      165 1
     130      108      107 ar
     131       69       73 1
     132       69       68 1
     133      183      165 1
     134      219      203 1
     135       89       73 1
     136      231      233 1
     137      231      232 1
     138       73       72 1
     139      199      203 1
     140      180      179 ar
     141      180      181 ar
     142      257      256 1
     143      165      164 1
     144      256      234 1
     145      256      259 1
     146      168      185 1
     147      168      170 1
     148      234      233 1
     149      179      178 ar
     150      171      170 1
     151      171      172 1
     152      152      133 1
     153      154      138 1
     154       85       67 1
     155      143      144 2
     156      143      142 ar
     157      203      202 1
     158      203      204 1
     159      149      142 ar
     160      149      139 ar
     161      134      138 1
     162      134      133 1
     163      125      114 1
     164      202      224 1
     165      202      225 1
     166       39       63 1
     167      107      115 ar
     168      107      106 1
     169      113      115 ar
     170      113      114 1
     171      233      248 1
     172      233      235 1
     173      102      106 1
     174      102      101 1
     175      122      106 1
     176      223      212 1
     177      232      236 1
     178       87       68 1
     179       68       67 1
     180       68       70 1
     181      170      191 1
     182      170      192 1
     183      181      172 ar
     184      181      175 ar
     185      142      141 ar
     186      138      139 1
     187      138      137 1
     188      150      132 1
     189      133      132 1
     190      133      135 1
     191      115      127 1
     192      178      176 ar
     193      172      173 ar
     194      106      105 1
     195      139      140 ar
     196      118      101 1
     197       67       66 1
     198       67       86 1
     199      116      100 1
     200       72       95 1
     201       72       94 1
     202       72       70 1
     203      114      126 1
     204      114      124 1
     205      259      260 1
     206      164      161 1
     207      136      135 1
     208      136      161 1
     209      213      214 ar
     210      213      211 ar
     211       66       63 1
     212      249      236 1
     213      204      214 ar
     214      204      205 ar
     215      212      211 1
     216      212      222 1
     217      101      100 1
     218      101      103 1
     219      132      151 1
     220      132      131 1
     221       65       63 2
     222       63       64 1
     223      162      161 2
     224      236      235 1
     225      236      237 1
     226       70       71 1
     227       70       88 1
     228      235      254 1
     229      235      255 1
     230      135      137 1
     231      135      153 1
     232      175      176 ar
     233      175      174 ar
     234      141      140 ar
     235      176      177 1
     236      214      207 ar
     237      140      155 1
     238      100      117 1
     239      100       99 1
     240      161      163 1
     241      211      210 ar
     242      279      260 1
     243      173      187 1
     244      173      174 ar
     245      137      159 1
     246      137      160 1
     247       71       96 1
     248      260      278 1
     249      260      261 1
     250      220      205 1
     251      105      103 1
     252      105      121 1
     253      105      120 1
     254      205      206 ar
     255      104      103 1
     256      104      128 1
     257      253      244 1
     258      103      119 1
     259       99       96 1
     260      281      263 1
     261      189      177 1
     262      237      244 ar
     263      237      238 ar
     264      131      128 1
     265      177      188 1
     266      129      128 2
     267      244      243 ar
     268      207      206 ar
     269      207      208 ar
     270      210      221 1
     271      210      208 ar
     272      239      238 2
     273       96       97 2
     274       96       98 1
     275      128      130 1
     276      238      240 ar
     277      261      263 1
     278      261      262 1
     279      261      280 1
     280      263      264 1
     281      263      265 1
     282      208      209 2
     283      288      265 1
     284      262      266 1
     285      243      252 1
     286      243      241 ar
     287      264      289 1
     288      283      268 1
     289      291      289 2
     290      265      266 1
     291      265      287 1
     292      240      241 ar
     293      290      289 1
     294      289      292 1
     295      241      242 1
     296      266      267 1
     297      266      282 1
     298      268      267 ar
     299      268      269 ar
     300      267      277 ar
     301      269      270 ar
     302      242      251 1
     303      242      250 1
     304      292      293 1
     305      308      293 1
     306      277      270 ar
     307      277      276 ar
     308      270      271 ar
     309      293      309 1
     310      293      294 1
     311      315      306 1
     312      276      274 ar
     313      316      307 1
     314      271      272 2
     315      271      273 ar
     316      295      294 1
     317      295      299 1
     318      306      307 ar
     319      306      304 ar
     320      314      305 1
     321      307      300 ar
     322      294      310 1
     323      294      296 1
     324      274      273 ar
     325      274      275 1
     326      273      284 1
     327      305      304 1
     328      305      313 1
     329      304      303 ar
     330      300      299 1
     331      300      301 ar
     332      286      275 1
     333      275      285 1
     334      311      296 1
     335      299      312 1
     336      299      298 1
     337      296      297 1
     338      296      298 1
     339      303      301 ar
     340      301      302 2
     341      347      337 1
     342      297      319 1
     343      298      317 1
     344      298      318 1
     345      349      337 1
     346      337      348 1
     347      337      336 1
     348      321      319 2
     349      319      320 1
     350      319      322 1
     351      335      334 2
     352      336      334 ar
     353      336      338 ar
     354      334      333 ar
     355      339      323 1
     356      322      323 1
     357      350      338 1
     358      338      330 ar
     359      333      346 1
     360      333      331 ar
     361      323      340 1
     362      323      324 1
     363      376      367 1
     364      375      367 1
     365      330      331 ar
     366      330      329 1
     367      325      324 1
     368      325      329 1
     369      331      332 2
     370      367      366 1
     371      324      341 1
     372      324      326 1
     373      343      328 1
     374      377      368 1
     375      329      328 1
     376      329      345 1
     377      366      368 ar
     378      366      365 ar
     379      342      326 1
     380      328      326 1
     381      328      344 1
     382      368      369 ar
     383      326      327 1
     384      409      397 1
     385      365      363 ar
     386      369      378 1
     387      369      362 ar
     388      397      408 1
     389      397      396 1
     390      327      351 1
     391      363      362 ar
     392      363      364 2
     393      398      396 ar
     394      398      399 ar
     395      362      361 1
     396      353      351 2
     397      396      395 ar
     398      410      399 1
     399      498      480 1
     400      351      354 1
     401      351      352 1
     402      399      400 ar
     403      370      355 1
     404      472      461 1
     405      357      361 1
     406      357      356 1
     407      354      355 1
     408      361      374 1
     409      361      360 1
     410      395      394 ar
     411      395      401 ar
     412      497      479 1
     413      380      360 1
     414      483      500 1
     415      483      482 1
     416      355      356 1
     417      355      371 1
     418      480      481 1
     419      480      479 1
     420      480      482 1
     421      461      460 ar
     422      461      462 ar
     423      505      493 1
     424      400      401 ar
     425      496      479 1
     426      501      485 1
     427      481      485 1
     428      394      393 ar
     429      479      478 1
     430      356      372 1
     431      356      358 1
     432      360      379 1
     433      360      358 1
     434      401      392 ar
     435      460      458 ar
     436      482      499 1
     437      482      484 1
     438      426      425 2
     439      462      463 ar
     440      494      493 ar
     441      494      495 ar
     442      493      492 ar
     443      437      429 1
     444      485      484 1
     445      485      486 1
     446      427      425 ar
     447      427      428 ar
     448      358      373 1
     449      358      359 1
     450      466      448 1
     451      393      392 ar
     452      393      407 1
     453      425      424 ar
     454      471      459 1
     455      392      391 1
     456      458      459 1
     457      458      457 ar
     458      484      506 1
     459      484      507 1
     460      495      486 ar
     461      495      489 ar
     462      478      475 1
     463      429      428 1
     464      429      438 1
     465      468      453 1
     466      463      457 ar
     467      463      454 ar
     468      486      487 ar
     469      492      490 ar
     470      476      475 2
     471      449      448 1
     472      449      453 1
     473      464      447 1
     474      459      470 1
     475      428      430 ar
     476      436      423 1
     477      448      447 1
     478      448      450 1
     479      457      456 ar
     480      359      381 1
     481      453      454 1
     482      453      452 1
     483      406      391 1
     484      387      391 1
     485      387      386 1
     486      424      423 1
     487      424      431 ar
     488      391      390 1
     489      475      451 1
     490      475      477 1
     491      454      455 ar
     492      465      447 1
     493      451      450 1
     494      447      446 1
     495      489      490 ar
     496      489      488 ar
     497      490      491 1
     498      423      419 1
     499      423      422 1
     500      487      502 1
     501      487      488 ar
     502      419      418 1
     503      383      381 2
     504      402      385 1
     505      450      452 1
     506      450      467 1
     507      430      431 ar
     508      430      439 1
     509      431      440 1
     510      456      455 ar
     511      434      418 1
     512      381      384 1
     513      381      382 1
     514      455      469 1
     515      504      491 1
     516      384      385 1
     517      491      503 1
     518      452      473 1
     519      452      474 1
     520      386      385 1
     521      386      404 1
     522      386      388 1
     523      385      403 1
     524      390      412 1
     525      390      411 1
     526      390      388 1
     527      418      420 1
     528      418      417 1
     529      446      443 1
     530      421      420 1
     531      421      443 1
     532      441      422 1
     533      422      420 1
     534      422      442 1
     535      432      417 1
     536      444      443 2
     537      420      435 1
     538      388      389 1
     539      388      405 1
     540      443      445 1
     541      417      416 1
     542      417      433 1
     543      389      413 1
     544      416      413 1
     545      413      415 2
     546      413      414 1
