@<TRIPOS>MOLECULE
1z04_EFGH.pdb
 2028 2184 0 0 0
SMALL
GASTEIGER

@<TRIPOS>ATOM
      1  C5*      -14.8280  -45.3630   13.6980 C.3     4  T4          0.0729
      2  O5*      -15.6290  -44.3960   14.3970 O.3     4  T4         -0.3924
      3  C4*      -15.5660  -46.1210   12.5770 C.3     4  T4          0.1107
      4  O4*      -16.8410  -46.6360   13.0650 O.3     4  T4         -0.3483
      5  C3*      -15.8830  -45.2700   11.3270 C.3     4  T4          0.0982
      6  O3*      -15.4650  -45.9050   10.1100 O.3     4  T4         -0.3213
      7  C2*      -17.3960  -45.0940   11.3830 C.3     4  T4          0.0221
      8  C1*      -17.8750  -46.3460   12.1300 C.3     4  T4          0.1422
      9  N1       -19.0990  -46.1690   12.9300 N.ar    4  T4         -0.2737
     10  C2       -20.0940  -47.1240   12.9160 C.ar    4  T4          0.3313
     11  O2       -20.0460  -48.1400   12.2360 O.2     4  T4         -0.2464
     12  N3       -21.1510  -46.8510   13.7440 N.ar    4  T4         -0.2747
     13  C4       -21.2460  -45.8320   14.6580 C.ar    4  T4          0.2568
     14  O4       -22.1820  -45.8100   15.4560 O.2     4  T4         -0.2674
     15  C5       -20.1860  -44.8560   14.6000 C.ar    4  T4          0.0302
     16  C5M      -20.1680  -43.7220   15.5780 C.3     4  T4         -0.0332
     17  C6       -19.1520  -45.1040   13.7890 C.ar    4  T4          0.0199
     18  H3       -21.8710  -47.5660   13.7760 H       4  T4          0.1734
     19  H6       -18.2370  -44.5060   13.8080 H       4  T4          0.0816
     20  H1*      -17.9230  -47.2000   11.4110 H       4  T4          0.0840
     21 1H2*      -17.6140  -44.1580   11.9320 H       4  T4          0.0335
     22 2H2*      -17.8630  -45.0340   10.3850 H       4  T4          0.0335
     23  H3*      -15.3760  -44.2860   11.4670 H       4  T4          0.0628
     24  H4*      -14.9630  -46.9940   12.2470 H       4  T4          0.0646
     25 1H5*      -14.4880  -46.1150   14.4450 H       4  T4          0.0584
     26 2H5*      -13.9200  -44.8820   13.2710 H       4  T4          0.0584
     27 1H5M      -19.6310  -44.0040   16.5110 H       4  T4          0.0280
     28 2H5M      -21.2010  -43.4170   15.8600 H       4  T4          0.0280
     29 3H5M      -19.6620  -42.8310   15.1450 H       4  T4          0.0280
     30  H5T      -16.3010  -44.9410   14.8380 H       4  T4          0.2095
     31  P        -15.4220  -45.0800    8.7660 P.3     5  T5          0.2130
     32  O1P      -14.4020  -45.7040    7.8970 O.2     5  T5         -0.5172
     33  O2P      -15.1820  -43.6590    9.0880 O.co2   5  T5         -0.4373
     34  C5*      -17.1830  -46.6180    7.6600 C.3     5  T5          0.0836
     35  O5*      -16.8340  -45.2750    8.0990 O.3     5  T5         -0.3248
     36  C4*      -18.6960  -46.8170    7.4930 C.3     5  T5          0.1114
     37  O4*      -19.3690  -46.5210    8.7460 O.3     5  T5         -0.3483
     38  C3*      -19.3630  -45.8650    6.4700 C.3     5  T5          0.0983
     39  O3*      -19.8600  -46.5850    5.3470 O.3     5  T5         -0.3213
     40  C2*      -20.4780  -45.1870    7.2700 C.3     5  T5          0.0221
     41  C1*      -20.6870  -46.1320    8.4440 C.3     5  T5          0.1422
     42  N1       -21.2170  -45.4460    9.6200 N.ar    5  T5         -0.2737
     43  C2       -22.3230  -45.9260   10.2680 C.ar    5  T5          0.3313
     44  O2       -22.9190  -46.9430    9.9270 O.2     5  T5         -0.2464
     45  N3       -22.7330  -45.1670   11.3240 N.ar    5  T5         -0.2747
     46  C4       -22.1770  -43.9870   11.7740 C.ar    5  T5          0.2568
     47  O4       -22.6810  -43.3810   12.7080 O.2     5  T5         -0.2674
     48  C5       -21.0010  -43.5550   11.0560 C.ar    5  T5          0.0302
     49  C5M      -20.2110  -42.3780   11.5440 C.3     5  T5         -0.0332
     50  C6       -20.5630  -44.3200   10.0580 C.ar    5  T5          0.0199
     51  H3       -23.5590  -45.5300   11.7900 H       5  T5          0.1734
     52  H6       -19.5730  -44.1890    9.6030 H       5  T5          0.0816
     53  H1*      -21.2600  -47.0390    8.1310 H       5  T5          0.0840
     54 1H2*      -20.0970  -44.1980    7.5880 H       5  T5          0.0335
     55 2H2*      -21.4330  -45.0390    6.7370 H       5  T5          0.0335
     56  H3*      -18.5960  -45.1180    6.1570 H       5  T5          0.0628
     57  H4*      -18.9280  -47.8680    7.2150 H       5  T5          0.0646
     58 1H5*      -16.8420  -47.4000    8.3840 H       5  T5          0.0591
     59 2H5*      -16.6990  -46.8300    6.6790 H       5  T5          0.0591
     60 1H5M      -20.8690  -41.5860   11.9640 H       5  T5          0.0280
     61 2H5M      -19.6180  -41.9230   10.7180 H       5  T5          0.0280
     62 3H5M      -19.4960  -42.6910   12.3350 H       5  T5          0.0280
     63  P        -20.7500  -45.9530    4.2250 P.3     6  G6          0.2130
     64  O1P      -20.4130  -46.5380    2.9230 O.2     6  G6         -0.5172
     65  O2P      -20.7420  -44.4660    4.2810 O.co2   6  G6         -0.4373
     66  C5*      -22.4720  -47.7780    4.9670 C.3     6  G6          0.0836
     67  O5*      -22.2080  -46.3930    4.6210 O.3     6  G6         -0.3248
     68  C4*      -23.9300  -48.0010    5.3980 C.3     6  G6          0.1114
     69  O4*      -24.1500  -47.3870    6.7040 O.3     6  G6         -0.3484
     70  C3*      -24.9750  -47.3650    4.4510 C.3     6  G6          0.0983
     71  O3*      -26.0750  -48.2310    4.1610 O.3     6  G6         -0.3213
     72  C2*      -25.4290  -46.1360    5.2180 C.3     6  G6          0.0220
     73  C1*      -25.3290  -46.5940    6.6580 C.3     6  G6          0.1408
     74  N1       -27.2600  -44.3770   10.7440 N.ar    6  G6         -0.2934
     75  C2       -27.6640  -45.4980   10.0920 C.ar    6  G6          0.1950
     76  N2       -28.7330  -46.1040   10.5360 N.pl3   6  G6         -0.3289
     77  N3       -27.0600  -45.9810    9.0230 N.ar    6  G6         -0.1963
     78  C4       -25.9970  -45.2430    8.6620 C.ar    6  G6          0.1711
     79  C5       -25.5040  -44.1020    9.2380 C.ar    6  G6          0.1721
     80  C6       -26.1430  -43.5980   10.4170 C.ar    6  G6          0.2803
     81  O6       -25.7910  -42.6130   11.0390 O.2     6  G6         -0.2654
     82  N7       -24.3940  -43.6060    8.5330 N.ar    6  G6         -0.2286
     83  C8       -24.2500  -44.4930    7.5620 C.ar    6  G6          0.1004
     84  N9       -25.1880  -45.4970    7.5980 N.ar    6  G6         -0.2878
     85  H1       -27.7630  -44.1050   11.5800 H       6  G6          0.1716
     86 1H2       -29.2940  -45.7330   11.2840 H       6  G6          0.1451
     87 2H2       -29.1130  -46.7800    9.9160 H       6  G6          0.1451
     88  H8       -23.4770  -44.4850    6.7870 H       6  G6          0.1030
     89  H1*      -26.1860  -47.2640    6.9100 H       6  G6          0.0840
     90 1H2*      -24.7090  -45.3170    5.0260 H       6  G6          0.0335
     91 2H2*      -26.4490  -45.7980    4.9760 H       6  G6          0.0335
     92  H3*      -24.4470  -47.0770    3.5130 H       6  G6          0.0628
     93  H4*      -24.1470  -49.0840    5.4990 H       6  G6          0.0646
     94 1H5*      -21.8200  -48.1150    5.8090 H       6  G6          0.0591
     95 2H5*      -22.2740  -48.4400    4.0900 H       6  G6          0.0591
     96  P        -27.1860  -47.7740    3.1290 P.3     7  T7          0.2130
     97  O1P      -27.4080  -48.8770    2.1740 O.2     7  T7         -0.5172
     98  O2P      -26.8430  -46.4360    2.5830 O.co2   7  T7         -0.4373
     99  C5*      -28.8600  -48.7020    4.9170 C.3     7  T7          0.0836
    100  O5*      -28.4570  -47.6080    4.0570 O.3     7  T7         -0.3248
    101  C4*      -30.0860  -48.3630    5.7870 C.3     7  T7          0.1114
    102  O4*      -29.7750  -47.3020    6.7470 O.3     7  T7         -0.3483
    103  C3*      -31.2900  -47.8630    4.9710 C.3     7  T7          0.0983
    104  O3*      -32.5220  -48.4140    5.4390 O.3     7  T7         -0.3213
    105  C2*      -31.2330  -46.3560    5.1400 C.3     7  T7          0.0221
    106  C1*      -30.6310  -46.1830    6.5350 C.3     7  T7          0.1422
    107  N1       -29.8080  -44.9830    6.6980 N.ar    7  T7         -0.2737
    108  C2       -29.9440  -44.2180    7.8280 C.ar    7  T7          0.3313
    109  O2       -30.7330  -44.4710    8.7270 O.2     7  T7         -0.2464
    110  N3       -29.1110  -43.1450    7.8870 N.ar    7  T7         -0.2747
    111  C4       -28.1760  -42.7430    6.9620 C.ar    7  T7          0.2568
    112  O4       -27.4610  -41.7830    7.1950 O.2     7  T7         -0.2674
    113  C5       -28.1260  -43.5660    5.7750 C.ar    7  T7          0.0302
    114  C5M      -27.1360  -43.1900    4.7150 C.3     7  T7         -0.0332
    115  C6       -28.8910  -44.6540    5.7220 C.ar    7  T7          0.0199
    116  H3       -29.2110  -42.5870    8.7300 H       7  T7          0.1734
    117  H6       -28.7490  -45.4310    4.9590 H       7  T7          0.0816
    118  H1*      -31.4590  -46.2670    7.2840 H       7  T7          0.0840
    119 1H2*      -30.5700  -45.9570    4.3480 H       7  T7          0.0335
    120 2H2*      -32.2070  -45.8520    5.0450 H       7  T7          0.0335
    121  H3*      -31.1160  -48.1400    3.9030 H       7  T7          0.0628
    122  H4*      -30.4030  -49.2610    6.3570 H       7  T7          0.0646
    123 1H5*      -28.0340  -48.9930    5.6070 H       7  T7          0.0591
    124 2H5*      -29.1290  -49.5920    4.2990 H       7  T7          0.0591
    125 1H5M      -26.0980  -43.3580    5.0770 H       7  T7          0.0280
    126 2H5M      -27.2340  -42.1170    4.4430 H       7  T7          0.0280
    127 3H5M      -27.2820  -43.7950    3.7910 H       7  T7          0.0280
    128  P        -33.8850  -48.0860    4.7150 P.3     8  G8          0.2130
    129  O1P      -34.6900  -49.3230    4.6690 O.3     8  G8         -0.4373
    130  O2P      -33.6270  -47.3920    3.4360 O.co2   8  G8         -0.5172
    131  C5*      -34.7840  -47.4990    7.0880 C.3     8  G8          0.0836
    132  O5*      -34.5690  -47.0620    5.7190 O.3     8  G8         -0.3248
    133  C4*      -35.3850  -46.3980    7.9810 C.3     8  G8          0.1114
    134  O4*      -34.3850  -45.3590    8.2200 O.3     8  G8         -0.3484
    135  C3*      -36.6010  -45.6890    7.3380 C.3     8  G8          0.0983
    136  O3*      -37.7490  -45.5360    8.1610 O.3     8  G8         -0.3213
    137  C2*      -36.0530  -44.3490    6.8780 C.3     8  G8          0.0220
    138  C1*      -34.8770  -44.0790    7.8260 C.3     8  G8          0.1408
    139  N1       -31.6780  -40.1410    8.2030 N.ar    8  G8         -0.2934
    140  C2       -32.6520  -40.5570    9.0690 C.ar    8  G8          0.1950
    141  N2       -32.8610  -39.8120   10.1140 N.pl3   8  G8         -0.3289
    142  N3       -33.3920  -41.6230    8.8730 N.ar    8  G8         -0.1963
    143  C4       -33.1220  -42.2450    7.7180 C.ar    8  G8          0.1711
    144  C5       -32.1760  -41.9070    6.7710 C.ar    8  G8          0.1721
    145  C6       -31.3550  -40.7720    7.0170 C.ar    8  G8          0.2803
    146  O6       -30.4440  -40.3330    6.2910 O.2     8  G8         -0.2654
    147  N7       -32.2300  -42.7810    5.6890 N.ar    8  G8         -0.2286
    148  C8       -33.1910  -43.6190    6.0060 C.ar    8  G8          0.1004
    149  N9       -33.7710  -43.3410    7.2190 N.ar    8  G8         -0.2878
    150  H1       -31.1250  -39.3460    8.4730 H       8  G8          0.1716
    151 1H2       -32.2630  -39.0630   10.4090 H       8  G8          0.1451
    152 2H2       -33.6010  -40.1240   10.7020 H       8  G8          0.1451
    153  H8       -33.5290  -44.4680    5.4070 H       8  G8          0.1030
    154  H1*      -35.2330  -43.5790    8.7540 H       8  G8          0.0840
    155 1H2*      -35.6960  -44.4680    5.8330 H       8  G8          0.0335
    156 2H2*      -36.8140  -43.5450    6.9240 H       8  G8          0.0335
    157  H3*      -36.8930  -46.2980    6.4520 H       8  G8          0.0628
    158  H4*      -35.6740  -46.8330    8.9610 H       8  G8          0.0646
    159 1H5*      -33.8290  -47.8280    7.5630 H       8  G8          0.0591
    160 2H5*      -35.4920  -48.3620    7.1020 H       8  G8          0.0591
    161  P        -37.9490  -44.9900    9.6160 P.3     9  A9          0.2130
    162  O1P      -36.9880  -45.6200   10.5460 O.3     9  A9         -0.4373
    163  O2P      -39.3760  -45.1430    9.9610 O.co2   9  A9         -0.5172
    164  C5*      -37.1780  -42.7540   10.6910 C.3     9  A9          0.0836
    165  O5*      -37.6300  -43.4310    9.4870 O.3     9  A9         -0.3248
    166  C4*      -37.3320  -41.2210   10.6320 C.3     9  A9          0.1114
    167  O4*      -36.2770  -40.6000    9.8330 O.3     9  A9         -0.3484
    168  C3*      -38.6600  -40.7170   10.0380 C.3     9  A9          0.0983
    169  O3*      -39.3160  -39.8000   10.9190 O.3     9  A9         -0.3213
    170  C2*      -38.2460  -40.0630    8.7180 C.3     9  A9          0.0220
    171  C1*      -36.8300  -39.5750    9.0140 C.3     9  A9          0.1408
    172  N1       -32.9900  -37.0110    6.6880 N.ar    9  A9         -0.2188
    173  C2       -33.6960  -36.7500    7.7930 C.ar    9  A9          0.1205
    174  N3       -34.7000  -37.4370    8.3280 N.ar    9  A9         -0.2159
    175  C4       -35.0080  -38.5190    7.5890 C.ar    9  A9          0.1673
    176  C5       -34.4080  -38.9030    6.4030 C.ar    9  A9          0.1473
    177  C6       -33.3250  -38.1050    5.9600 C.ar    9  A9          0.1472
    178  N6       -32.5820  -38.3630    4.8750 N.pl3   9  A9         -0.3413
    179  N7       -34.9630  -40.0920    5.9290 N.ar    9  A9         -0.2306
    180  C8       -35.8680  -40.3890    6.8340 C.ar    9  A9          0.1003
    181  N9       -35.9590  -39.4720    7.8500 N.ar    9  A9         -0.2879
    182  H2       -33.3920  -35.8540    8.3480 H       9  A9          0.1048
    183 1H6       -31.8250  -37.7500    4.6380 H       9  A9          0.1438
    184 2H6       -32.8640  -39.0620    4.2220 H       9  A9          0.1438
    185  H8       -36.4980  -41.2810    6.8250 H       9  A9          0.1030
    186  H1*      -36.8560  -38.6330    9.6130 H       9  A9          0.0840
    187 1H2*      -38.2440  -40.8540    7.9380 H       9  A9          0.0335
    188 2H2*      -38.9070  -39.2370    8.3950 H       9  A9          0.0335
    189  H3*      -39.3050  -41.6060    9.8400 H       9  A9          0.0628
    190  H4*      -37.2290  -40.8020   11.6550 H       9  A9          0.0646
    191 1H5*      -36.1130  -43.0090   10.9000 H       9  A9          0.0591
    192 2H5*      -37.7840  -43.0780   11.5740 H       9  A9          0.0591
    193  P        -40.7640  -39.2690   10.5850 P.3    10  G10         0.2130
    194  O1P      -41.4970  -39.0700   11.8560 O.3    10  G10        -0.4373
    195  O2P      -41.3750  -40.1230    9.5430 O.co2  10  G10        -0.5172
    196  C5*      -39.6610  -36.8940   10.7070 C.3    10  G10         0.0836
    197  O5*      -40.4290  -37.8600    9.9490 O.3    10  G10        -0.3248
    198  C4*      -39.1580  -35.7360    9.8290 C.3    10  G10         0.1114
    199  O4*      -38.2240  -36.2270    8.8280 O.3    10  G10        -0.3484
    200  C3*      -40.2570  -35.0530    8.9820 C.3    10  G10         0.0983
    201  O3*      -40.4960  -33.7110    9.4200 O.3    10  G10        -0.3213
    202  C2*      -39.6960  -35.0810    7.5520 C.3    10  G10         0.0220
    203  C1*      -38.2060  -35.2560    7.8000 C.3    10  G10         0.1408
    204  N1       -34.3760  -34.7110    4.4920 N.ar   10  G10        -0.2934
    205  C2       -34.7420  -33.9020    5.5240 C.ar   10  G10         0.1950
    206  N2       -34.0090  -32.8300    5.7020 N.pl3  10  G10        -0.3289
    207  N3       -35.7700  -34.1370    6.3210 N.ar   10  G10        -0.1963
    208  C4       -36.3960  -35.2850    6.0150 C.ar   10  G10         0.1711
    209  C5       -36.1150  -36.1740    4.9900 C.ar   10  G10         0.1721
    210  C6       -35.0020  -35.8940    4.1430 C.ar   10  G10         0.2803
    211  O6       -34.5810  -36.5680    3.1940 O.2    10  G10        -0.2654
    212  N7       -37.0150  -37.2420    5.0030 N.ar   10  G10        -0.2286
    213  C8       -37.8000  -36.9830    6.0210 C.ar   10  G10         0.1004
    214  N9       -37.4830  -35.8120    6.6620 N.ar   10  G10        -0.2878
    215  H1       -33.5690  -34.4700    3.9410 H      10  G10         0.1716
    216 1H2       -33.2360  -32.6090    5.1080 H      10  G10         0.1451
    217 2H2       -34.2330  -32.2680    6.4890 H      10  G10         0.1451
    218  H8       -38.6160  -37.6130    6.3810 H      10  G10         0.1030
    219  H1*      -37.7430  -34.3210    8.1960 H      10  G10         0.0840
    220 1H2*      -40.1340  -35.9550    7.0250 H      10  G10         0.0335
    221 2H2*      -39.9040  -34.1610    6.9750 H      10  G10         0.0335
    222  H3*      -41.1790  -35.6780    9.0510 H      10  G10         0.0628
    223  H4*      -38.6380  -34.9670   10.4370 H      10  G10         0.0646
    224 1H5*      -38.7690  -37.3560   11.1980 H      10  G10         0.0591
    225 2H5*      -40.3070  -36.4620   11.5060 H      10  G10         0.0591
    226  P        -41.7420  -32.9410    8.8080 P.3    11  C11         0.2130
    227  O1P      -42.4580  -32.2830    9.9220 O.3    11  C11        -0.4373
    228  O2P      -42.4900  -33.8580    7.9180 O.co2  11  C11        -0.5172
    229  C5*      -40.4760  -30.6840    8.6020 C.3    11  C11         0.0836
    230  O5*      -41.0020  -31.8480    7.9260 O.3    11  C11        -0.3248
    231  C4*      -39.7340  -29.7410    7.6430 C.3    11  C11         0.1114
    232  O4*      -38.5170  -30.3740    7.1550 O.3    11  C11        -0.3483
    233  C3*      -40.5130  -29.3440    6.3690 C.3    11  C11         0.0983
    234  O3*      -41.3030  -28.1650    6.5840 O.3    11  C11        -0.3213
    235  C2*      -39.3880  -29.0250    5.4020 C.3    11  C11         0.0221
    236  C1*      -38.2790  -30.0240    5.7860 C.3    11  C11         0.1423
    237  N1       -38.2040  -31.2640    4.9660 N.ar   11  C11        -0.2725
    238  C2       -37.1550  -31.4810    4.0720 C.ar   11  C11         0.3521
    239  O2       -36.2610  -30.6330    3.9460 O.2    11  C11        -0.2444
    240  N3       -37.1200  -32.6200    3.3390 N.ar   11  C11        -0.1783
    241  C4       -38.1190  -33.5050    3.4310 C.ar   11  C11         0.1230
    242  N4       -38.0500  -34.5980    2.6800 N.pl3  11  C11        -0.3430
    243  C5       -39.2270  -33.2920    4.3000 C.ar   11  C11        -0.0056
    244  C6       -39.2330  -32.1710    5.0410 C.ar   11  C11         0.0151
    245 1H4       -37.2430  -34.6860    2.0820 H      11  C11         0.1437
    246 2H4       -38.8280  -35.1910    2.5240 H      11  C11         0.1437
    247  H5       -40.0250  -34.0280    4.3530 H      11  C11         0.0666
    248  H6       -40.0140  -31.9530    5.7760 H      11  C11         0.0812
    249  H1*      -37.3030  -29.4860    5.7710 H      11  C11         0.0840
    250 1H2*      -39.7050  -29.1270    4.3450 H      11  C11         0.0335
    251 2H2*      -38.9980  -27.9970    5.5750 H      11  C11         0.0335
    252  H3*      -41.0890  -30.2350    6.0240 H      11  C11         0.0628
    253  H4*      -39.4160  -28.8210    8.1730 H      11  C11         0.0646
    254 1H5*      -39.7700  -30.9910    9.4100 H      11  C11         0.0591
    255 2H5*      -41.3170  -30.1150    9.0630 H      11  C11         0.0591
    256  P        -42.8840  -28.2560    6.6210 P.3    12  G12         0.2130
    257  O1P      -43.2100  -27.4710    7.8400 O.3    12  G12        -0.4373
    258  O2P      -43.3740  -29.6270    6.5060 O.co2  12  G12        -0.5172
    259  C5*      -43.0900  -26.0660    5.1450 C.3    12  G12         0.0836
    260  O5*      -43.3240  -27.4670    5.3550 O.3    12  G12        -0.3248
    261  C4*      -43.1050  -25.7110    3.6480 C.3    12  G12         0.1114
    262  O4*      -42.1210  -26.5040    2.9100 O.3    12  G12        -0.3484
    263  C3*      -44.4640  -25.9970    2.9870 C.3    12  G12         0.0983
    264  O3*      -44.8370  -24.9710    2.0590 O.3    12  G12        -0.3213
    265  C2*      -44.2520  -27.3600    2.3340 C.3    12  G12         0.0220
    266  C1*      -42.7750  -27.3220    1.9360 C.3    12  G12         0.1408
    267  N1       -39.7160  -30.4630   -0.6990 N.ar   12  G12        -0.2934
    268  C2       -40.1370  -29.1960   -1.0140 C.ar   12  G12         0.1950
    269  N2       -39.7170  -28.6990   -2.1490 N.pl3  12  G12        -0.3289
    270  N3       -40.9160  -28.4670   -0.2360 N.ar   12  G12        -0.1963
    271  C4       -41.2680  -29.1050    0.8980 C.ar   12  G12         0.1711
    272  C5       -40.9050  -30.3740    1.3060 C.ar   12  G12         0.1721
    273  C6       -40.0540  -31.1460    0.4590 C.ar   12  G12         0.2803
    274  O6       -39.6260  -32.2880    0.6730 O.2    12  G12        -0.2654
    275  N7       -41.4860  -30.6790    2.5380 N.ar   12  G12        -0.2286
    276  C8       -42.1680  -29.5990    2.8560 C.ar   12  G12         0.1004
    277  N9       -42.0960  -28.6210    1.8890 N.ar   12  G12        -0.2878
    278  H1       -39.1620  -30.9700   -1.3650 H      12  G12         0.1716
    279 1H2       -39.2350  -29.2460   -2.8390 H      12  G12         0.1451
    280 2H2       -40.0450  -27.7800   -2.3600 H      12  G12         0.1451
    281  H8       -42.7360  -29.4450    3.7810 H      12  G12         0.1030
    282  H1*      -42.7100  -26.7950    0.9620 H      12  G12         0.0840
    283 1H2*      -44.4140  -28.1340    3.1140 H      12  G12         0.0335
    284 2H2*      -44.9130  -27.5760    1.4800 H      12  G12         0.0335
    285  H3*      -45.2230  -26.0730    3.8030 H      12  G12         0.0628
    286  H4*      -42.8640  -24.6370    3.5100 H      12  G12         0.0646
    287 1H5*      -42.1050  -25.7470    5.5560 H      12  G12         0.0591
    288 2H5*      -43.8980  -25.4800    5.6440 H      12  G12         0.0591
    289  P        -46.1790  -25.0520    1.2560 P.3    13  C13         0.2130
    290  O1P      -46.6900  -23.6800    1.0230 O.2    13  C13        -0.5172
    291  O2P      -47.0970  -26.0290    1.8780 O.co2  13  C13        -0.4373
    292  C5*      -44.8980  -24.6940   -0.9230 C.3    13  C13         0.0836
    293  O5*      -45.7050  -25.6150   -0.1360 O.3    13  C13        -0.3248
    294  C4*      -44.3280  -25.3450   -2.1780 C.3    13  C13         0.1114
    295  O4*      -43.5670  -26.5450   -1.8520 O.3    13  C13        -0.3483
    296  C3*      -45.4110  -25.7600   -3.1930 C.3    13  C13         0.0983
    297  O3*      -45.2210  -25.1080   -4.4520 O.3    13  C13        -0.3213
    298  C2*      -45.2790  -27.2820   -3.2740 C.3    13  C13         0.0221
    299  C1*      -43.8530  -27.5610   -2.8050 C.3    13  C13         0.1423
    300  N1       -43.6860  -28.8770   -2.1560 N.ar   13  C13        -0.2725
    301  C2       -43.0210  -29.9090   -2.7980 C.ar   13  C13         0.3521
    302  O2       -42.5550  -29.7210   -3.9350 O.2    13  C13        -0.2444
    303  N3       -42.8780  -31.0980   -2.1940 N.ar   13  C13        -0.1783
    304  C4       -43.4310  -31.3180   -0.9940 C.ar   13  C13         0.1230
    305  N4       -43.2270  -32.5040   -0.4410 N.pl3  13  C13        -0.3430
    306  C5       -44.1840  -30.3060   -0.3330 C.ar   13  C13        -0.0056
    307  C6       -44.2980  -29.1140   -0.9450 C.ar   13  C13         0.0151
    308 1H4       -42.6700  -33.1670   -0.9520 H      13  C13         0.1437
    309 2H4       -43.5520  -32.7420    0.4670 H      13  C13         0.1437
    310  H5       -44.6340  -30.5220    0.6330 H      13  C13         0.0666
    311  H6       -44.8150  -28.2520   -0.5130 H      13  C13         0.0812
    312  H1*      -43.1430  -27.3970   -3.6510 H      13  C13         0.0840
    313 1H2*      -46.0250  -27.7360   -2.5870 H      13  C13         0.0335
    314 2H2*      -45.4270  -27.6890   -4.2910 H      13  C13         0.0335
    315  H3*      -46.4000  -25.4880   -2.7500 H      13  C13         0.0628
    316  H4*      -43.6250  -24.6500   -2.6810 H      13  C13         0.0646
    317 1H5*      -44.0310  -24.3040   -0.3370 H      13  C13         0.0591
    318 2H5*      -45.5100  -23.8200   -1.2570 H      13  C13         0.0591
    319  P        -46.1830  -25.3400   -5.6740 P.3    14  T14         0.2130
    320  O1P      -46.3130  -24.0640   -6.4180 O.2    14  T14        -0.5172
    321  O2P      -47.4420  -26.0190   -5.2920 O.co2  14  T14        -0.4373
    322  C5*      -43.9410  -25.9650   -6.8400 C.3    14  T14         0.0836
    323  O5*      -45.3240  -26.3080   -6.5580 O.3    14  T14        -0.3248
    324  C4*      -43.3490  -26.8370   -7.9520 C.3    14  T14         0.1114
    325  O4*      -43.1460  -28.1970   -7.4760 O.3    14  T14        -0.3483
    326  C3*      -44.2750  -26.9420   -9.1670 C.3    14  T14         0.0983
    327  O3*      -43.5560  -26.8190  -10.3910 O.3    14  T14        -0.3213
    328  C2*      -44.9310  -28.3080   -9.0120 C.3    14  T14         0.0221
    329  C1*      -43.8780  -29.1260   -8.2640 C.3    14  T14         0.1422
    330  N1       -44.4230  -30.1210   -7.3250 N.ar   14  T14        -0.2737
    331  C2       -43.9680  -31.4130   -7.3630 C.ar   14  T14         0.3313
    332  O2       -43.1380  -31.8190   -8.1700 O.2    14  T14        -0.2464
    333  N3       -44.5210  -32.2390   -6.4180 N.ar   14  T14        -0.2747
    334  C4       -45.3910  -31.8820   -5.4240 C.ar   14  T14         0.2568
    335  O4       -45.7050  -32.7170   -4.5600 O.2    14  T14        -0.2674
    336  C5       -45.8750  -30.5340   -5.4680 C.ar   14  T14         0.0302
    337  C5M      -46.8620  -30.0830   -4.4420 C.3    14  T14        -0.0332
    338  C6       -45.3260  -29.7050   -6.3760 C.ar   14  T14         0.0199
    339  H3       -44.1420  -33.1780   -6.3970 H      14  T14         0.1734
    340  H6       -45.4950  -28.6270   -6.3490 H      14  T14         0.0816
    341  H1*      -43.1560  -29.5490   -9.0050 H      14  T14         0.0840
    342 1H2*      -45.8520  -28.1780   -8.4100 H      14  T14         0.0335
    343 2H2*      -45.1990  -28.7740   -9.9720 H      14  T14         0.0335
    344  H3*      -45.0380  -26.1340   -9.0800 H      14  T14         0.0628
    345  H4*      -42.3640  -26.4380   -8.2800 H      14  T14         0.0646
    346 1H5*      -43.3060  -26.0820   -5.9300 H      14  T14         0.0591
    347 2H5*      -43.8600  -24.9080   -7.1900 H      14  T14         0.0591
    348 1H5M      -47.2990  -29.0920   -4.7060 H      14  T14         0.0280
    349 2H5M      -46.3850  -29.9930   -3.4400 H      14  T14         0.0280
    350 3H5M      -47.7040  -30.8070   -4.3600 H      14  T14         0.0280
    351  P        -44.3330  -26.7520  -11.7570 P.3    15  C15         0.2130
    352  O1P      -43.6250  -25.7650  -12.5990 O.2    15  C15        -0.5172
    353  O2P      -45.7550  -26.4430  -11.4630 O.co2  15  C15        -0.4373
    354  C5*      -42.8290  -28.7960  -12.3980 C.3    15  C15         0.0836
    355  O5*      -44.1730  -28.2360  -12.3250 O.3    15  C15        -0.3248
    356  C4*      -42.7630  -30.2450  -12.9380 C.3    15  C15         0.1114
    357  O4*      -43.1530  -31.1920  -11.8970 O.3    15  C15        -0.3483
    358  C3*      -43.6760  -30.5390  -14.1440 C.3    15  C15         0.0983
    359  O3*      -43.0360  -31.3360  -15.1480 O.3    15  C15        -0.3213
    360  C2*      -44.8520  -31.2670  -13.5210 C.3    15  C15         0.0221
    361  C1*      -44.2090  -32.0340  -12.3550 C.3    15  C15         0.1423
    362  N1       -45.0910  -32.2800  -11.1990 N.ar   15  C15        -0.2725
    363  C2       -45.1480  -33.5020  -10.5210 C.ar   15  C15         0.3521
    364  O2       -44.4440  -34.4480  -10.8940 O.2    15  C15        -0.2444
    365  N3       -46.0030  -33.6460   -9.4780 N.ar   15  C15        -0.1783
    366  C4       -46.7120  -32.6010   -9.0530 C.ar   15  C15         0.1230
    367  N4       -47.5250  -32.7840   -8.0240 N.pl3  15  C15        -0.3430
    368  C5       -46.6210  -31.3220   -9.6720 C.ar   15  C15        -0.0056
    369  C6       -45.7900  -31.2060  -10.7200 C.ar   15  C15         0.0151
    370 1H4       -47.5390  -33.6870   -7.5940 H      15  C15         0.1437
    371 2H4       -47.9900  -32.0200   -7.5690 H      15  C15         0.1437
    372  H5       -47.1800  -30.4870   -9.2600 H      15  C15         0.0666
    373  H6       -45.5980  -30.2530  -11.2300 H      15  C15         0.0812
    374  H1*      -43.7400  -32.9690  -12.7460 H      15  C15         0.0840
    375 1H2*      -45.5680  -30.5000  -13.1730 H      15  C15         0.0335
    376 2H2*      -45.3830  -31.9320  -14.2190 H      15  C15         0.0335
    377  H3*      -43.9990  -29.5570  -14.5650 H      15  C15         0.0628
    378  H4*      -41.7180  -30.4900  -13.2230 H      15  C15         0.0646
    379 1H5*      -42.3370  -28.7990  -11.3950 H      15  C15         0.0591
    380 2H5*      -42.2030  -28.1740  -13.0780 H      15  C15         0.0591
    381  P        -43.7680  -31.6270  -16.5210 P.3    16  A16         0.2130
    382  O1P      -42.7650  -31.5660  -17.6080 O.2    16  A16        -0.5172
    383  O2P      -44.9580  -30.7550  -16.6390 O.co2  16  A16        -0.4373
    384  C5*      -43.2730  -34.1980  -16.5790 C.3    16  A16         0.0836
    385  O5*      -44.2400  -33.1360  -16.3400 O.3    16  A16        -0.3248
    386  C4*      -43.6250  -35.5350  -15.8950 C.3    16  A16         0.1114
    387  O4*      -43.9010  -35.3420  -14.4740 O.3    16  A16        -0.3484
    388  C3*      -44.8650  -36.2560  -16.4520 C.3    16  A16         0.0983
    389  O3*      -44.4950  -37.1130  -17.5420 O.3    16  A16        -0.3213
    390  C2*      -45.2680  -37.0840  -15.2500 C.3    16  A16         0.0220
    391  C1*      -44.9620  -36.1920  -14.0610 C.3    16  A16         0.1408
    392  N1       -48.6480  -35.7630  -10.5850 N.ar   16  A16        -0.2188
    393  C2       -47.7880  -36.7480  -10.8700 C.ar   16  A16         0.1205
    394  N3       -46.8310  -36.7710  -11.7910 N.ar   16  A16        -0.2159
    395  C4       -46.8640  -35.6620  -12.5530 C.ar   16  A16         0.1673
    396  C5       -47.7450  -34.6060  -12.4450 C.ar   16  A16         0.1473
    397  C6       -48.6420  -34.6590  -11.3580 C.ar   16  A16         0.1472
    398  N6       -49.4820  -33.6770  -11.0060 N.pl3  16  A16        -0.3413
    399  N7       -47.5490  -33.6740  -13.4610 N.ar   16  A16        -0.2306
    400  C8       -46.5290  -34.1810  -14.1350 C.ar   16  A16         0.1003
    401  N9       -46.0700  -35.3700  -13.6180 N.ar   16  A16        -0.2879
    402  H2       -47.8330  -37.6300  -10.2190 H      16  A16         0.1048
    403 1H6       -50.0830  -33.8630  -10.2240 H      16  A16         0.1438
    404 2H6       -49.3500  -32.7530  -11.3340 H      16  A16         0.1438
    405  H8       -46.0570  -33.7300  -15.0110 H      16  A16         0.1030
    406  H1*      -44.5860  -36.8150  -13.2140 H      16  A16         0.0840
    407 1H2*      -46.3160  -37.4160  -15.2940 H      16  A16         0.0335
    408 2H2*      -44.6230  -37.9840  -15.1680 H      16  A16         0.0335
    409  H3*      -45.6140  -35.4780  -16.7290 H      16  A16         0.0628
    410  H4*      -42.7730  -36.2430  -15.9670 H      16  A16         0.0646
    411 1H5*      -42.2580  -33.9130  -16.2100 H      16  A16         0.0591
    412 2H5*      -43.1920  -34.3890  -17.6740 H      16  A16         0.0591
    413  P        -45.6400  -37.7300  -18.4500 P.3    17  C17         0.2130
    414  O1P      -45.0410  -38.2520  -19.6950 O.2    17  C17        -0.5172
    415  O2P      -46.7390  -36.7440  -18.5540 O.co2  17  C17        -0.4373
    416  C5*      -45.3930  -39.9670  -17.0300 C.3    17  C17         0.0836
    417  O5*      -46.2150  -38.9380  -17.6150 O.3    17  C17        -0.3248
    418  C4*      -46.1690  -40.7950  -15.9840 C.3    17  C17         0.1114
    419  O4*      -46.7840  -39.9280  -14.9660 O.3    17  C17        -0.3483
    420  C3*      -47.3250  -41.5670  -16.6570 C.3    17  C17         0.0983
    421  O3*      -47.3840  -42.9650  -16.4080 O.3    17  C17        -0.3213
    422  C2*      -48.5800  -40.8350  -16.2040 C.3    17  C17         0.0221
    423  C1*      -48.1930  -40.1640  -14.8760 C.3    17  C17         0.1423
    424  N1       -48.8590  -38.8630  -14.6370 N.ar   17  C17        -0.2725
    425  C2       -49.6370  -38.6060  -13.5010 C.ar   17  C17         0.3521
    426  O2       -49.7950  -39.4890  -12.6480 O.2    17  C17        -0.2444
    427  N3       -50.2240  -37.3930  -13.3490 N.ar   17  C17        -0.1783
    428  C4       -50.0560  -36.4580  -14.2850 C.ar   17  C17         0.1230
    429  N4       -50.6080  -35.2680  -14.0740 N.pl3  17  C17        -0.3430
    430  C5       -49.2920  -36.6890  -15.4630 C.ar   17  C17        -0.0056
    431  C6       -48.7250  -37.8980  -15.6030 C.ar   17  C17         0.0151
    432 1H4       -51.1820  -35.1770  -13.2600 H      17  C17         0.1437
    433 2H4       -50.3900  -34.4910  -14.6540 H      17  C17         0.1437
    434  H5       -49.1610  -35.9010  -16.1990 H      17  C17         0.0666
    435  H6       -48.0770  -38.1510  -16.4550 H      17  C17         0.0812
    436  H1*      -48.3300  -40.8790  -14.0340 H      17  C17         0.0840
    437 1H2*      -48.8420  -40.0830  -16.9740 H      17  C17         0.0335
    438 2H2*      -49.4260  -41.5270  -16.0480 H      17  C17         0.0335
    439  H3*      -47.2080  -41.4210  -17.7550 H      17  C17         0.0628
    440  H4*      -45.4870  -41.5060  -15.4750 H      17  C17         0.0646
    441 1H5*      -44.4920  -39.5430  -16.5330 H      17  C17         0.0591
    442 2H5*      -45.0360  -40.6570  -17.8290 H      17  C17         0.0591
    443  P        -47.3230  -43.8270  -15.0990 P.3    18  A18         0.2130
    444  O1P      -46.0850  -43.5340  -14.3440 O.3    18  A18        -0.4373
    445  O2P      -47.5310  -45.2380  -15.4900 O.co2  18  A18        -0.5172
    446  C5*      -49.6820  -44.1440  -13.8620 C.3    18  A18         0.0836
    447  O5*      -48.5820  -43.3240  -14.2970 O.3    18  A18        -0.3248
    448  C4*      -51.0660  -43.6670  -14.3610 C.3    18  A18         0.1114
    449  O4*      -51.2320  -42.2240  -14.2970 O.3    18  A18        -0.3484
    450  C3*      -51.3420  -43.9710  -15.8530 C.3    18  A18         0.0983
    451  O3*      -52.1120  -45.1560  -16.0190 O.3    18  A18        -0.3213
    452  C2*      -52.0090  -42.6760  -16.3620 C.3    18  A18         0.0220
    453  C1*      -52.3810  -41.9540  -15.0590 C.3    18  A18         0.1408
    454  N1       -54.5440  -37.6110  -13.1960 N.ar   18  A18        -0.2188
    455  C2       -54.6000  -38.8830  -12.7800 C.ar   18  A18         0.1205
    456  N3       -54.0100  -39.9660  -13.2930 N.ar   18  A18        -0.2159
    457  C4       -53.2490  -39.6530  -14.3580 C.ar   18  A18         0.1673
    458  C5       -53.0910  -38.3960  -14.9130 C.ar   18  A18         0.1473
    459  C6       -53.7800  -37.3370  -14.2790 C.ar   18  A18         0.1472
    460  N6       -53.7560  -36.0780  -14.7440 N.pl3  18  A18        -0.3413
    461  N7       -52.2710  -38.4410  -16.0460 N.ar   18  A18        -0.2306
    462  C8       -51.9660  -39.7120  -16.1440 C.ar   18  A18         0.1003
    463  N9       -52.5260  -40.5050  -15.1710 N.ar   18  A18        -0.2879
    464  H2       -55.2260  -39.0640  -11.9000 H      18  A18         0.1048
    465 1H6       -53.4680  -35.9150  -15.6830 H      18  A18         0.1438
    466 2H6       -54.3720  -35.4100  -14.3240 H      18  A18         0.1438
    467  H8       -51.3160  -40.1300  -16.9160 H      18  A18         0.1030
    468  H1*      -53.2510  -42.4300  -14.5540 H      18  A18         0.0840
    469 1H2*      -51.2410  -42.1250  -16.9360 H      18  A18         0.0335
    470 2H2*      -52.8810  -42.8010  -17.0210 H      18  A18         0.0335
    471  H3*      -50.3490  -44.1010  -16.3430 H      18  A18         0.0628
    472  H4*      -51.8640  -44.1330  -13.7550 H      18  A18         0.0646
    473 1H5*      -49.7040  -44.1130  -12.7520 H      18  A18         0.0591
    474 2H5*      -49.5640  -45.2140  -14.1580 H      18  A18         0.0591
    475  P        -53.5610  -45.4330  -16.5330 P.3    19  A19         0.2130
    476  O1P      -53.8730  -46.8680  -16.3670 O.3    19  A19        -0.4373
    477  O2P      -53.7550  -44.8350  -17.8690 O.co2  19  A19        -0.5172
    478  C5*      -54.6450  -45.0870  -14.1640 C.3    19  A19         0.0835
    479  O5*      -54.4680  -44.6210  -15.5230 O.3    19  A19        -0.3248
    480  C4*      -55.9370  -44.5450  -13.5400 C.3    19  A19         0.1107
    481  O4*      -55.9550  -43.0850  -13.5530 O.3    19  A19        -0.3484
    482  C3*      -57.1740  -44.9840  -14.3340 C.3    19  A19         0.0877
    483  O3*      -58.2930  -45.3840  -13.5430 O.3    19  A19        -0.3890
    484  C2*      -57.5290  -43.7790  -15.1740 C.3    19  A19         0.0213
    485  C1*      -57.0650  -42.6090  -14.3040 C.3    19  A19         0.1408
    486  N1       -57.5110  -37.5400  -14.9510 N.ar   19  A19        -0.2188
    487  C2       -58.0020  -38.3730  -14.0270 C.ar   19  A19         0.1205
    488  N3       -57.8750  -39.7000  -13.9480 N.ar   19  A19        -0.2159
    489  C4       -57.0160  -40.1640  -14.8750 C.ar   19  A19         0.1673
    490  C5       -56.3810  -39.4300  -15.8570 C.ar   19  A19         0.1473
    491  C6       -56.6770  -38.0440  -15.8910 C.ar   19  A19         0.1472
    492  N6       -56.1870  -37.1920  -16.8010 N.pl3  19  A19        -0.3413
    493  N7       -55.5610  -40.2510  -16.6410 N.ar   19  A19        -0.2306
    494  C8       -55.7350  -41.4510  -16.1190 C.ar   19  A19         0.1003
    495  N9       -56.6190  -41.4590  -15.0650 N.ar   19  A19        -0.2879
    496  H2       -58.6610  -37.9100  -13.2780 H      19  A19         0.1048
    497 1H6       -56.4520  -36.2240  -16.7530 H      19  A19         0.1438
    498 2H6       -55.5950  -37.4970  -17.5370 H      19  A19         0.1438
    499  H8       -55.2390  -42.3690  -16.4520 H      19  A19         0.1030
    500  H1*      -57.8530  -42.3380  -13.5620 H      19  A19         0.0840
    501 1H2*      -56.9450  -43.8300  -16.1200 H      19  A19         0.0335
    502 2H2*      -58.6060  -43.7040  -15.4130 H      19  A19         0.0335
    503  H3*      -56.8540  -45.8270  -14.9920 H      19  A19         0.0621
    504  H4*      -56.0430  -44.8900  -12.4910 H      19  A19         0.0646
    505 1H5*      -53.7920  -44.7550  -13.5350 H      19  A19         0.0591
    506 2H5*      -54.6920  -46.2030  -14.1080 H      19  A19         0.0591
    507  H3T      -59.0710  -45.4390  -14.1010 H      19  A19         0.2099
    508  C5*      -63.4170  -30.5010  -15.0990 C.3     4  T4          0.0729
    509  O5*      -62.2660  -29.7240  -15.4740 O.3     4  T4         -0.3924
    510  C4*      -63.2110  -31.5030  -13.9460 C.3     4  T4          0.1107
    511  O4*      -62.4390  -32.6550  -14.4080 O.3     4  T4         -0.3483
    512  C3*      -62.4940  -30.9650  -12.6920 C.3     4  T4          0.0982
    513  O3*      -63.2030  -31.3090  -11.4970 O.3     4  T4         -0.3213
    514  C2*      -61.1110  -31.6090  -12.7600 C.3     4  T4          0.0221
    515  C1*      -61.3490  -32.9160  -13.5230 C.3     4  T4          0.1422
    516  N1       -60.2140  -33.3430  -14.3590 N.ar    4  T4         -0.2737
    517  C2       -59.7000  -34.6100  -14.2460 C.ar    4  T4          0.3313
    518  O2       -60.1390  -35.4440  -13.4620 O.2     4  T4         -0.2464
    519  N3       -58.6570  -34.8820  -15.0810 N.ar    4  T4         -0.2747
    520  C4       -58.1370  -34.0670  -16.0590 C.ar    4  T4          0.2568
    521  O4       -57.2310  -34.4770  -16.7710 O.2     4  T4         -0.2674
    522  C5       -58.7410  -32.7540  -16.1400 C.ar    4  T4          0.0302
    523  C5M      -58.3700  -31.8470  -17.2740 C.3     4  T4         -0.0332
    524  C6       -59.7640  -32.4820  -15.3290 C.ar    4  T4          0.0199
    525  H3       -58.2860  -35.8240  -15.0160 H       4  T4          0.1734
    526  H6       -60.3920  -31.5900  -15.4410 H       4  T4          0.0816
    527  H1*      -61.6930  -33.6930  -12.7990 H       4  T4          0.0840
    528 1H2*      -60.4440  -30.9280  -13.3270 H       4  T4          0.0335
    529 2H2*      -60.6500  -31.8080  -11.7760 H       4  T4          0.0335
    530  H3*      -62.4050  -29.8560  -12.7910 H       4  T4          0.0628
    531  H4*      -64.2040  -31.8860  -13.6260 H       4  T4          0.0646
    532 1H5*      -63.7780  -31.0780  -15.9830 H       4  T4          0.0584
    533 2H5*      -64.2320  -29.8040  -14.7980 H       4  T4          0.0584
    534 1H5M      -57.3160  -31.9890  -17.5980 H       4  T4          0.0280
    535 2H5M      -58.4950  -30.7780  -16.9960 H       4  T4          0.0280
    536 3H5M      -59.0230  -32.0500  -18.1520 H       4  T4          0.0280
    537  H5T      -62.5940  -29.0990  -16.1270 H       4  T4          0.2095
    538  P        -62.7410  -30.7820  -10.0930 P.3     5  T5          0.2130
    539  O1P      -63.9360  -30.6320   -9.2380 O.3     5  T5         -0.4373
    540  O2P      -61.9830  -29.5320  -10.2700 O.co2   5  T5         -0.5172
    541  C5*      -62.2840  -33.2650   -9.4430 C.3     5  T5          0.0836
    542  O5*      -61.8090  -31.9000   -9.5080 O.3     5  T5         -0.3248
    543  C4*      -61.1500  -34.2350   -9.0910 C.3     5  T5          0.1114
    544  O4*      -60.2850  -34.3780  -10.2510 O.3     5  T5         -0.3483
    545  C3*      -60.1850  -33.7560   -7.9680 C.3     5  T5          0.0983
    546  O3*      -60.2760  -34.6000   -6.8220 O.3     5  T5         -0.3213
    547  C2*      -58.8030  -33.8080   -8.6370 C.3     5  T5          0.0221
    548  C1*      -59.0200  -34.7860   -9.7860 C.3     5  T5          0.1422
    549  N1       -58.0640  -34.6050  -10.8860 N.ar    5  T5         -0.2737
    550  C2       -57.3880  -35.6770  -11.4130 C.ar    5  T5          0.3313
    551  O2       -57.5530  -36.8310  -11.0220 O.2     5  T5         -0.2464
    552  N3       -56.5010  -35.3660  -12.4060 N.ar    5  T5         -0.2747
    553  C4       -56.2270  -34.1090  -12.9020 C.ar    5  T5          0.2568
    554  O4       -55.3390  -33.9540  -13.7330 O.2     5  T5         -0.2674
    555  C5       -57.0340  -33.0410  -12.3620 C.ar    5  T5          0.0302
    556  C5M      -56.9690  -31.6810  -12.9890 C.3     5  T5         -0.0332
    557  C6       -57.9280  -33.3480  -11.4210 C.ar    5  T5          0.0199
    558  H3       -55.9540  -36.1470  -12.7470 H       5  T5          0.1734
    559  H6       -58.7370  -32.6640  -11.1320 H       5  T5          0.0816
    560  H1*      -59.1030  -35.8340   -9.4070 H       5  T5          0.0840
    561 1H2*      -58.5790  -32.7870   -9.0050 H       5  T5          0.0335
    562 2H2*      -57.9790  -34.1380   -7.9850 H       5  T5          0.0335
    563  H3*      -60.4440  -32.7070   -7.6930 H       5  T5          0.0628
    564  H4*      -61.5470  -35.2410   -8.8360 H       5  T5          0.0646
    565 1H5*      -62.7210  -33.5980  -10.4170 H       5  T5          0.0591
    566 2H5*      -63.0760  -33.3510   -8.6630 H       5  T5          0.0591
    567 1H5M      -57.2740  -30.8860  -12.2710 H       5  T5          0.0280
    568 2H5M      -57.6580  -31.6220  -13.8580 H       5  T5          0.0280
    569 3H5M      -55.9450  -31.4460  -13.3510 H       5  T5          0.0280
    570  P        -59.3330  -34.4860   -5.5810 P.3     6  G6          0.2130
    571  O1P      -60.0950  -34.6960   -4.3400 O.3     6  G6         -0.4373
    572  O2P      -58.5270  -33.2340   -5.6300 O.co2   6  G6         -0.5172
    573  C5*      -58.8340  -36.9980   -6.1410 C.3     6  G6          0.0836
    574  O5*      -58.3270  -35.6810   -5.7930 O.3     6  G6         -0.3248
    575  C4*      -57.7190  -38.0090   -6.4710 C.3     6  G6          0.1114
    576  O4*      -57.0700  -37.6570   -7.7320 O.3     6  G6         -0.3484
    577  C3*      -56.5940  -38.0390   -5.4170 C.3     6  G6          0.0983
    578  O3*      -56.2030  -39.3680   -5.0490 O.3     6  G6         -0.3213
    579  C2*      -55.4550  -37.3070   -6.1040 C.3     6  G6          0.0220
    580  C1*      -55.6590  -37.7100   -7.5540 C.3     6  G6          0.1408
    581  N1       -52.0150  -37.1280  -10.9980 N.ar    6  G6         -0.2934
    582  C2       -52.3610  -38.2330  -10.2830 C.ar    6  G6          0.1950
    583  N2       -51.6070  -39.2930  -10.4300 N.pl3   6  G6         -0.3289
    584  N3       -53.3650  -38.2630   -9.4240 N.ar    6  G6         -0.1963
    585  C4       -53.9980  -37.0820   -9.3340 C.ar    6  G6          0.1711
    586  C5       -53.7360  -35.9090  -10.0030 C.ar    6  G6          0.1721
    587  C6       -52.6640  -35.8980  -10.9470 C.ar    6  G6          0.2803
    588  O6       -52.3180  -34.9280  -11.6200 O.2     6  G6         -0.2654
    589  N7       -54.5930  -34.8790   -9.5840 N.ar    6  G6         -0.2286
    590  C8       -55.3620  -35.4780   -8.6890 C.ar    6  G6          0.1004
    591  N9       -55.0410  -36.7990   -8.5010 N.ar    6  G6         -0.2878
    592  H1       -51.2670  -37.2220  -11.6690 H       6  G6          0.1716
    593 1H2       -50.9100  -39.3860  -11.1500 H       6  G6          0.1451
    594 2H2       -51.7380  -40.0060   -9.7530 H       6  G6          0.1451
    595  H8       -56.1860  -35.0290   -8.1260 H       6  G6          0.1030
    596  H1*      -55.3320  -38.7660   -7.7060 H       6  G6          0.0840
    597 1H2*      -55.6200  -36.2170   -5.9850 H       6  G6          0.0335
    598 2H2*      -54.4520  -37.5790   -5.7330 H       6  G6          0.0335
    599  H3*      -56.9660  -37.4690   -4.5310 H       6  G6          0.0628
    600  H4*      -58.1380  -39.0330   -6.5760 H       6  G6          0.0646
    601 1H5*      -59.5070  -36.9540   -7.0290 H       6  G6          0.0591
    602 2H5*      -59.4130  -37.4170   -5.2840 H       6  G6          0.0591
    603  P        -55.2160  -39.5350   -3.8230 P.3     7  T7          0.2130
    604  O1P      -55.5830  -40.7680   -3.0990 O.2     7  T7         -0.5172
    605  O2P      -55.1730  -38.2700   -3.0510 O.co2   7  T7         -0.4373
    606  C5*      -53.5080  -40.9600   -5.2200 C.3     7  T7          0.0836
    607  O5*      -53.8120  -39.7320   -4.5160 O.3     7  T7         -0.3248
    608  C4*      -52.0400  -41.0060   -5.6880 C.3     7  T7          0.1114
    609  O4*      -51.8000  -39.9540   -6.6790 O.3     7  T7         -0.3483
    610  C3*      -51.0020  -40.7510   -4.5640 C.3     7  T7          0.0983
    611  O3*      -49.8050  -41.5170   -4.7160 O.3     7  T7         -0.3213
    612  C2*      -50.6530  -39.2940   -4.7440 C.3     7  T7          0.0221
    613  C1*      -50.6710  -39.1990   -6.2640 C.3     7  T7          0.1422
    614  N1       -50.8100  -37.8560   -6.8070 N.ar    7  T7         -0.2737
    615  C2       -50.0080  -37.4590   -7.8180 C.ar    7  T7          0.3313
    616  O2       -49.1260  -38.2170   -8.3350 O.2     7  T7         -0.2464
    617  N3       -50.1920  -36.2100   -8.2770 N.ar    7  T7         -0.2747
    618  C4       -51.1460  -35.3070   -7.8580 C.ar    7  T7          0.2568
    619  O4       -51.2640  -34.2360   -8.4550 O.2     7  T7         -0.2674
    620  C5       -51.9590  -35.7590   -6.7540 C.ar    7  T7          0.0302
    621  C5M      -52.9000  -34.7940   -6.1000 C.3     7  T7         -0.0332
    622  C6       -51.7630  -37.0000   -6.2900 C.ar    7  T7          0.0199
    623  H3       -49.6090  -35.9520   -9.0600 H       7  T7          0.1734
    624  H6       -52.4320  -37.4740   -5.5620 H       7  T7          0.0816
    625  H1*      -49.7760  -39.7420   -6.6550 H       7  T7          0.0840
    626 1H2*      -51.4420  -38.6730   -4.2770 H       7  T7          0.0335
    627 2H2*      -49.6750  -39.0240   -4.3090 H       7  T7          0.0335
    628  H3*      -51.5000  -40.9100   -3.5750 H       7  T7          0.0628
    629  H4*      -51.8180  -41.9890   -6.1520 H       7  T7          0.0646
    630 1H5*      -54.1620  -41.0660   -6.1190 H       7  T7          0.0591
    631 2H5*      -53.6820  -41.8450   -4.5620 H       7  T7          0.0591
    632 1H5M      -53.6140  -35.3280   -5.4360 H       7  T7          0.0280
    633 2H5M      -53.4970  -34.2330   -6.8510 H       7  T7          0.0280
    634 3H5M      -52.3430  -34.0610   -5.4760 H       7  T7          0.0280
    635  P        -49.4570  -42.7140   -3.7780 P.3     8  G8          0.2130
    636  O1P      -50.3710  -43.8390   -4.0690 O.2     8  G8         -0.5172
    637  O2P      -49.3690  -42.2210   -2.3880 O.co2   8  G8         -0.4373
    638  C5*      -47.8770  -43.5800   -5.6620 C.3     8  G8          0.0836
    639  O5*      -48.0100  -43.0750   -4.3070 O.3     8  G8         -0.3248
    640  C4*      -46.5290  -43.2180   -6.3070 C.3     8  G8          0.1114
    641  O4*      -46.6040  -41.8840   -6.9010 O.3     8  G8         -0.3484
    642  C3*      -45.3250  -43.1810   -5.3480 C.3     8  G8          0.0983
    643  O3*      -44.1660  -43.7780   -5.9290 O.3     8  G8         -0.3213
    644  C2*      -45.1500  -41.6960   -5.0570 C.3     8  G8          0.0220
    645  C1*      -45.5830  -41.0390   -6.3630 C.3     8  G8          0.1408
    646  N1       -45.8340  -36.2670   -8.1190 N.ar    8  G8         -0.2934
    647  C2       -45.0490  -37.3010   -8.5480 C.ar    8  G8          0.1950
    648  N2       -44.2850  -37.0630   -9.5820 N.pl3   8  G8         -0.3289
    649  N3       -44.9980  -38.4780   -7.9570 N.ar    8  G8         -0.1963
    650  C4       -45.8530  -38.5700   -6.9220 C.ar    8  G8          0.1711
    651  C5       -46.6360  -37.5720   -6.3720 C.ar    8  G8          0.1721
    652  C6       -46.6740  -36.3060   -7.0160 C.ar    8  G8          0.2803
    653  O6       -47.3460  -35.3160   -6.6760 O.2     8  G8         -0.2654
    654  N7       -47.3640  -38.0590   -5.2940 N.ar    8  G8         -0.2286
    655  C8       -47.0600  -39.3350   -5.2420 C.ar    8  G8          0.1004
    656  N9       -46.1390  -39.6990   -6.1940 N.ar    8  G8         -0.2878
    657  H1       -45.8120  -35.4070   -8.6410 H       8  G8          0.1716
    658 1H2       -44.2880  -36.1890  -10.0710 H       8  G8          0.1451
    659 2H2       -43.6030  -37.7620   -9.7640 H       8  G8          0.1451
    660  H8       -47.5030  -40.0710   -4.5630 H       8  G8          0.1030
    661  H1*      -44.7370  -41.0470   -7.0910 H       8  G8          0.0840
    662 1H2*      -45.8550  -41.4420   -4.2340 H       8  G8          0.0335
    663 2H2*      -44.1400  -41.3810   -4.7480 H       8  G8          0.0335
    664  H3*      -45.6030  -43.7260   -4.4170 H       8  G8          0.0628
    665  H4*      -46.3050  -43.9250   -7.1330 H       8  G8          0.0646
    666 1H5*      -48.6850  -43.2130   -6.3430 H       8  G8          0.0591
    667 2H5*      -47.9510  -44.6900   -5.6330 H       8  G8          0.0591
    668  P        -42.7690  -43.7610   -5.2040 P.3     9  A9          0.2130
    669  O1P      -42.0750  -45.0270   -5.5190 O.2     9  A9         -0.5172
    670  O2P      -42.9360  -43.4030   -3.7800 O.co2   9  A9         -0.4373
    671  C5*      -41.9690  -42.6360   -7.4060 C.3     9  A9          0.0836
    672  O5*      -42.0360  -42.5680   -5.9550 O.3     9  A9         -0.3248
    673  C4*      -41.1270  -41.5090   -8.0270 C.3     9  A9          0.1114
    674  O4*      -41.7890  -40.2140   -7.8730 O.3     9  A9         -0.3484
    675  C3*      -39.7390  -41.3550   -7.3830 C.3     9  A9          0.0983
    676  O3*      -38.7190  -41.1360   -8.3570 O.3     9  A9         -0.3213
    677  C2*      -39.9150  -40.1750   -6.4390 C.3     9  A9          0.0220
    678  C1*      -40.9520  -39.3090   -7.1540 C.3     9  A9          0.1408
    679  N1       -43.3650  -34.8430   -6.2730 N.ar    9  A9         -0.2188
    680  C2       -42.5380  -35.2300   -7.2500 C.ar    9  A9          0.1205
    681  N3       -41.9370  -36.4040   -7.4170 N.ar    9  A9         -0.2159
    682  C4       -42.2330  -37.2580   -6.4160 C.ar    9  A9          0.1673
    683  C5       -43.0380  -37.0020   -5.3230 C.ar    9  A9          0.1473
    684  C6       -43.6290  -35.7200   -5.2750 C.ar    9  A9          0.1472
    685  N6       -44.4350  -35.2980   -4.2960 N.pl3   9  A9         -0.3413
    686  N7       -43.1520  -38.1270   -4.5060 N.ar    9  A9         -0.2306
    687  C8       -42.4120  -39.0230   -5.1210 C.ar    9  A9          0.1003
    688  N9       -41.8130  -38.5530   -6.2640 N.ar    9  A9         -0.2879
    689  H2       -42.3460  -34.4890   -8.0360 H       9  A9          0.1048
    690 1H6       -44.5500  -35.8320   -3.4640 H       9  A9          0.1438
    691 2H6       -44.8750  -34.4000   -4.3650 H       9  A9          0.1438
    692  H8       -42.2710  -40.0590   -4.7950 H       9  A9          0.1030
    693  H1*      -40.4520  -38.6580   -7.9090 H       9  A9          0.0840
    694 1H2*      -40.3250  -40.5780   -5.4880 H       9  A9          0.0335
    695 2H2*      -38.9900  -39.6140   -6.2150 H       9  A9          0.0335
    696  H3*      -39.5310  -42.2860   -6.8020 H       9  A9          0.0628
    697  H4*      -40.9950  -41.6920   -9.1150 H       9  A9          0.0646
    698 1H5*      -42.9890  -42.5860   -7.8560 H       9  A9          0.0591
    699 2H5*      -41.5010  -43.5980   -7.7240 H       9  A9          0.0591
    700  P        -37.2020  -40.9940   -7.9400 P.3    10  G10         0.2130
    701  O1P      -36.3680  -41.5470   -9.0300 O.2    10  G10        -0.5172
    702  O2P      -37.0140  -41.5440   -6.5780 O.co2  10  G10        -0.4373
    703  C5*      -37.4550  -38.5950   -8.9920 C.3    10  G10         0.0836
    704  O5*      -37.0180  -39.4230   -7.8840 O.3    10  G10        -0.3248
    705  C4*      -37.5970  -37.1120   -8.6070 C.3    10  G10         0.1114
    706  O4*      -38.5050  -36.9660   -7.4870 O.3    10  G10        -0.3484
    707  C3*      -36.3010  -36.4570   -8.0850 C.3    10  G10         0.0983
    708  O3*      -35.7510  -35.5720   -9.0680 O.3    10  G10        -0.3213
    709  C2*      -36.7580  -35.6920   -6.8270 C.3    10  G10         0.0220
    710  C1*      -38.2810  -35.6720   -6.9670 C.3    10  G10         0.1408
    711  N1       -41.2970  -32.8830   -3.9510 N.ar   10  G10        -0.2934
    712  C2       -40.8210  -32.5880   -5.1930 C.ar   10  G10         0.1950
    713  N2       -41.1750  -31.4300   -5.6930 N.pl3  10  G10        -0.3289
    714  N3       -40.0600  -33.4080   -5.9050 N.ar   10  G10        -0.1963
    715  C4       -39.7910  -34.5510   -5.2430 C.ar   10  G10         0.1711
    716  C5       -40.2290  -34.9490   -3.9970 C.ar   10  G10         0.1721
    717  C6       -41.0680  -34.0610   -3.2470 C.ar   10  G10         0.2803
    718  O6       -41.5570  -34.2330   -2.1370 O.2    10  G10        -0.2654
    719  N7       -39.7350  -36.2200   -3.6750 N.ar   10  G10        -0.2286
    720  C8       -39.0170  -36.5480   -4.7240 C.ar   10  G10         0.1004
    721  N9       -39.0050  -35.5790   -5.7000 N.ar   10  G10        -0.2878
    722  H1       -41.8600  -32.2020   -3.4700 H      10  G10         0.1716
    723 1H2       -41.6750  -30.7390   -5.1600 H      10  G10         0.1451
    724 2H2       -40.9170  -31.2570   -6.6380 H      10  G10         0.1451
    725  H8       -38.4890  -37.4950   -4.8760 H      10  G10         0.1030
    726  H1*      -38.6190  -34.9230   -7.7200 H      10  G10         0.0840
    727 1H2*      -36.4440  -36.2670   -5.9320 H      10  G10         0.0335
    728 2H2*      -36.3510  -34.6630   -6.7750 H      10  G10         0.0335
    729  H3*      -35.6030  -37.2840   -7.8120 H      10  G10         0.0628
    730  H4*      -37.9930  -36.5150   -9.4540 H      10  G10         0.0646
    731 1H5*      -38.4440  -38.9200   -9.3930 H      10  G10         0.0591
    732 2H5*      -36.7140  -38.6680   -9.8200 H      10  G10         0.0591
    733  P        -34.2250  -35.1450   -8.9730 P.3    11  C11         0.2130
    734  O1P      -33.7720  -34.7790  -10.3350 O.2    11  C11        -0.5172
    735  O2P      -33.4610  -36.1970   -8.2630 O.co2  11  C11        -0.4373
    736  C5*      -34.7170  -32.5830   -8.6410 C.3    11  C11         0.0836
    737  O5*      -34.2800  -33.8460   -8.0650 O.3    11  C11        -0.3248
    738  C4*      -35.0510  -31.5080   -7.5840 C.3    11  C11         0.1114
    739  O4*      -35.9900  -32.0360   -6.6110 O.3    11  C11        -0.3483
    740  C3*      -33.8660  -31.1260   -6.6910 C.3    11  C11         0.0983
    741  O3*      -33.1150  -30.0370   -7.2520 O.3    11  C11        -0.3213
    742  C2*      -34.5330  -30.6830   -5.3820 C.3    11  C11         0.0221
    743  C1*      -36.0030  -31.1440   -5.5050 C.3    11  C11         0.1423
    744  N1       -36.5060  -31.9050   -4.3460 N.ar   11  C11        -0.2725
    745  C2       -37.6280  -31.5280   -3.6060 C.ar   11  C11         0.3521
    746  O2       -38.2510  -30.4940   -3.9090 O.2    11  C11        -0.2444
    747  N3       -38.0170  -32.2650   -2.5490 N.ar   11  C11        -0.1783
    748  C4       -37.3370  -33.3780   -2.2230 C.ar   11  C11         0.1230
    749  N4       -37.7110  -34.0380   -1.1410 N.pl3  11  C11        -0.3430
    750  C5       -36.2160  -33.8150   -2.9810 C.ar   11  C11        -0.0056
    751  C6       -35.8290  -33.0550   -4.0180 C.ar   11  C11         0.0151
    752 1H4       -38.4910  -33.6800   -0.6280 H      11  C11         0.1437
    753 2H4       -37.1150  -34.7160   -0.7060 H      11  C11         0.1437
    754  H5       -35.6990  -34.7280   -2.6930 H      11  C11         0.0666
    755  H6       -34.9890  -33.3060   -4.6760 H      11  C11         0.0812
    756  H1*      -36.6460  -30.2740   -5.7750 H      11  C11         0.0840
    757 1H2*      -33.9980  -31.1140   -4.5150 H      11  C11         0.0335
    758 2H2*      -34.5160  -29.5780   -5.2930 H      11  C11         0.0335
    759  H3*      -33.2760  -32.0610   -6.5350 H      11  C11         0.0628
    760  H4*      -35.4710  -30.5870   -8.0420 H      11  C11         0.0646
    761 1H5*      -35.6290  -32.7220   -9.2680 H      11  C11         0.0591
    762 2H5*      -33.9110  -32.1680   -9.2920 H      11  C11         0.0591
    763  P        -31.5470  -30.0940   -7.3990 P.3    12  G12         0.2130
    764  O1P      -31.0260  -28.6970   -7.4110 O.3    12  G12        -0.4373
    765  O2P      -31.1590  -30.9460   -8.5410 O.co2  12  G12        -0.5172
    766  C5*      -30.8770  -29.8370   -4.9430 C.3    12  G12         0.0836
    767  O5*      -31.0820  -30.7780   -6.0280 O.3    12  G12        -0.3248
    768  C4*      -30.5960  -30.4500   -3.5680 C.3    12  G12         0.1114
    769  O4*      -31.6980  -31.2490   -3.0970 O.3    12  G12        -0.3484
    770  C3*      -29.3940  -31.4150   -3.4550 C.3    12  G12         0.0983
    771  O3*      -28.2760  -30.7210   -2.8910 O.3    12  G12        -0.3213
    772  C2*      -29.9600  -32.5530   -2.5650 C.3    12  G12         0.0220
    773  C1*      -31.1900  -31.8820   -1.9530 C.3    12  G12         0.1408
    774  N1       -34.8620  -32.4450    1.4950 N.ar   12  G12        -0.2934
    775  C2       -34.0090  -31.3970    1.3110 C.ar   12  G12         0.1950
    776  N2       -34.1420  -30.3830    2.1380 N.pl3  12  G12        -0.3289
    777  N3       -33.0890  -31.3640    0.3580 N.ar   12  G12        -0.1963
    778  C4       -33.0720  -32.4860   -0.3840 C.ar   12  G12         0.1711
    779  C5       -33.8830  -33.5930   -0.2790 C.ar   12  G12         0.1721
    780  C6       -34.8750  -33.6100    0.7450 C.ar   12  G12         0.2803
    781  O6       -35.6910  -34.5060    0.9730 O.2    12  G12        -0.2654
    782  N7       -33.5630  -34.5370   -1.2600 N.ar   12  G12        -0.2286
    783  C8       -32.5800  -33.9840   -1.9270 C.ar   12  G12         0.1004
    784  N9       -32.2270  -32.7560   -1.4330 N.ar   12  G12        -0.2878
    785  H1       -35.5480  -32.3940    2.2310 H      12  G12         0.1716
    786 1H2       -34.8110  -30.4060    2.8880 H      12  G12         0.1451
    787 2H2       -33.4560  -29.6640    2.0930 H      12  G12         0.1451
    788  H8       -32.0820  -34.4250   -2.7950 H      12  G12         0.1030
    789  H1*      -30.8880  -31.1030   -1.2170 H      12  G12         0.0840
    790 1H2*      -30.2420  -33.3920   -3.2360 H      12  G12         0.0335
    791 2H2*      -29.2780  -32.9320   -1.7860 H      12  G12         0.0335
    792  H3*      -29.1530  -31.7890   -4.4780 H      12  G12         0.0628
    793  H4*      -30.4530  -29.6330   -2.8290 H      12  G12         0.0646
    794 1H5*      -31.7630  -29.1640   -4.8130 H      12  G12         0.0591
    795 2H5*      -29.9830  -29.2250   -5.1870 H      12  G12         0.0591
    796  P        -27.0340  -31.3990   -2.2400 P.3    13  C13         0.2130
    797  O1P      -25.8750  -30.4820   -2.3420 O.3    13  C13        -0.4373
    798  O2P      -26.8530  -32.7600   -2.7790 O.co2  13  C13        -0.5172
    799  C5*      -27.3200  -30.2620    0.0570 C.3    13  C13         0.0836
    800  O5*      -27.4450  -31.4860   -0.7240 O.3    13  C13        -0.3248
    801  C4*      -28.2620  -30.1760    1.2660 C.3    13  C13         0.1114
    802  O4*      -29.5770  -30.7180    0.9970 O.3    13  C13        -0.3483
    803  C3*      -27.7730  -30.9370    2.4960 C.3    13  C13         0.0983
    804  O3*      -26.7790  -30.1550    3.1550 O.3    13  C13        -0.3213
    805  C2*      -29.0670  -30.9710    3.2870 C.3    13  C13         0.0221
    806  C1*      -30.1330  -31.2060    2.2160 C.3    13  C13         0.1423
    807  N1       -30.5650  -32.6090    2.0600 N.ar   13  C13        -0.2725
    808  C2       -31.5810  -33.0740    2.8900 C.ar   13  C13         0.3521
    809  O2       -32.0790  -32.3230    3.7330 O.2    13  C13        -0.2444
    810  N3       -32.0310  -34.3350    2.7470 N.ar   13  C13        -0.1783
    811  C4       -31.4830  -35.1480    1.8450 C.ar   13  C13         0.1230
    812  N4       -32.0140  -36.3490    1.7080 N.pl3  13  C13        -0.3430
    813  C5       -30.3760  -34.7360    1.0410 C.ar   13  C13        -0.0056
    814  C6       -29.9520  -33.4650    1.1750 C.ar   13  C13         0.0151
    815 1H4       -32.8920  -36.5130    2.1730 H      13  C13         0.1437
    816 2H4       -31.6750  -37.0120    1.0410 H      13  C13         0.1437
    817  H5       -29.9350  -35.4360    0.3380 H      13  C13         0.0666
    818  H6       -29.1440  -33.0260    0.5750 H      13  C13         0.0812
    819  H1*      -31.0130  -30.5550    2.4340 H      13  C13         0.0840
    820 1H2*      -29.0730  -31.7250    4.0920 H      13  C13         0.0335
    821 2H2*      -29.2690  -29.9760    3.7330 H      13  C13         0.0335
    822  H3*      -27.4160  -31.9420    2.1760 H      13  C13         0.0628
    823  H4*      -28.4030  -29.1150    1.5650 H      13  C13         0.0646
    824 1H5*      -27.5450  -29.3510   -0.5460 H      13  C13         0.0591
    825 2H5*      -26.2740  -30.1640    0.4310 H      13  C13         0.0591
    826  P        -25.9260  -30.7160    4.3400 P.3    14  T14         0.2130
    827  O1P      -24.9210  -29.6920    4.6830 O.3    14  T14        -0.4373
    828  O2P      -25.4250  -32.0720    4.0270 O.co2  14  T14        -0.5172
    829  C5*      -27.6240  -29.7000    6.0980 C.3    14  T14         0.0836
    830  O5*      -26.9470  -30.8360    5.5200 O.3    14  T14        -0.3248
    831  C4*      -28.5360  -30.1070    7.2670 C.3    14  T14         0.1114
    832  O4*      -29.5170  -31.1110    6.8710 O.3    14  T14        -0.3483
    833  C3*      -27.7190  -30.7180    8.4090 C.3    14  T14         0.0983
    834  O3*      -28.1120  -30.2100    9.6850 O.3    14  T14        -0.3213
    835  C2*      -27.9700  -32.2110    8.2750 C.3    14  T14         0.0221
    836  C1*      -29.3770  -32.2770    7.6740 C.3    14  T14         0.1422
    837  N1       -29.6100  -33.4200    6.7880 N.ar   14  T14        -0.2737
    838  C2       -30.7560  -34.1680    6.9240 C.ar   14  T14         0.3313
    839  O2       -31.6170  -33.9340    7.7610 O.2    14  T14        -0.2464
    840  N3       -30.8540  -35.2060    6.0510 N.ar   14  T14        -0.2747
    841  C4       -29.9660  -35.5720    5.0620 C.ar   14  T14         0.2568
    842  O4       -30.1570  -36.5880    4.4240 O.2    14  T14        -0.2674
    843  C5       -28.8460  -34.6630    4.9010 C.ar   14  T14         0.0302
    844  C5M      -27.7990  -34.9540    3.8630 C.3    14  T14        -0.0332
    845  C6       -28.7090  -33.6750    5.7760 C.ar   14  T14         0.0199
    846  H3       -31.6530  -35.8180    6.2050 H      14  T14         0.1734
    847  H6       -27.9230  -32.9160    5.6700 H      14  T14         0.0816
    848  H1*      -30.1210  -32.1900    8.5030 H      14  T14         0.0840
    849 1H2*      -27.2060  -32.6210    7.5850 H      14  T14         0.0335
    850 2H2*      -27.9040  -32.7510    9.2330 H      14  T14         0.0335
    851  H3*      -26.6450  -30.4920    8.2030 H      14  T14         0.0628
    852  H4*      -29.1010  -29.2370    7.6560 H      14  T14         0.0646
    853 1H5*      -28.2550  -29.1830    5.3470 H      14  T14         0.0591
    854 2H5*      -26.8820  -28.9670    6.4910 H      14  T14         0.0591
    855 1H5M      -28.2480  -35.3100    2.9110 H      14  T14         0.0280
    856 2H5M      -27.0970  -35.7380    4.2200 H      14  T14         0.0280
    857 3H5M      -27.1950  -34.0440    3.6320 H      14  T14         0.0280
    858  P        -27.2380  -30.5530   10.9580 P.3    15  C15         0.2130
    859  O1P      -27.3560  -29.4050   11.8850 O.3    15  C15        -0.4373
    860  O2P      -25.8730  -30.9240   10.5210 O.co2  15  C15        -0.5172
    861  C5*      -29.3570  -31.7490   11.9360 C.3    15  C15         0.0836
    862  O5*      -27.9600  -31.8370   11.5650 O.3    15  C15        -0.3248
    863  C4*      -29.9390  -33.0860   12.4520 C.3    15  C15         0.1114
    864  O4*      -30.2610  -33.9610   11.3220 O.3    15  C15        -0.3483
    865  C3*      -29.0310  -33.9360   13.3820 C.3    15  C15         0.0983
    866  O3*      -29.7230  -34.4030   14.5430 O.3    15  C15        -0.3213
    867  C2*      -28.6150  -35.0960   12.4870 C.3    15  C15         0.0221
    868  C1*      -29.8680  -35.2940   11.6420 C.3    15  C15         0.1423
    869  N1       -29.6370  -36.0300   10.3890 N.ar   15  C15        -0.2725
    870  C2       -30.2730  -37.2370   10.0930 C.ar   15  C15         0.3521
    871  O2       -31.0830  -37.7190   10.8880 O.2    15  C15        -0.2444
    872  N3       -29.9780  -37.8790    8.9380 N.ar   15  C15        -0.1783
    873  C4       -29.0810  -37.3650    8.0960 C.ar   15  C15         0.1230
    874  N4       -28.7710  -38.0550    7.0090 N.pl3  15  C15        -0.3430
    875  C5       -28.4300  -36.1250    8.3690 C.ar   15  C15        -0.0056
    876  C6       -28.7320  -35.5010    9.5160 C.ar   15  C15         0.0151
    877 1H4       -29.3170  -38.8640    6.7740 H      15  C15         0.1437
    878 2H4       -28.0400  -37.7450    6.3990 H      15  C15         0.1437
    879  H5       -27.7530  -35.6880    7.6440 H      15  C15         0.0666
    880  H6       -28.3190  -34.5330    9.8170 H      15  C15         0.0812
    881  H1*      -30.6800  -35.7370   12.2670 H      15  C15         0.0840
    882 1H2*      -27.7570  -34.7620   11.8680 H      15  C15         0.0335
    883 2H2*      -28.3290  -36.0120   13.0290 H      15  C15         0.0335
    884  H3*      -28.1440  -33.3240   13.6660 H      15  C15         0.0628
    885  H4*      -30.8880  -32.8890   12.9940 H      15  C15         0.0646
    886 1H5*      -29.9830  -31.4150   11.0730 H      15  C15         0.0591
    887 2H5*      -29.4740  -30.9980   12.7520 H      15  C15         0.0591
    888  P        -28.9800  -35.1430   15.7240 P.3    16  A16         0.2130
    889  O1P      -29.1470  -34.3430   16.9540 O.3    16  A16        -0.4373
    890  O2P      -27.6080  -35.5240   15.3260 O.co2  16  A16        -0.5172
    891  C5*      -31.2440  -36.4260   16.0890 C.3    16  A16         0.0836
    892  O5*      -29.8170  -36.4750   15.8610 O.3    16  A16        -0.3248
    893  C4*      -31.8990  -37.8150   15.9720 C.3    16  A16         0.1114
    894  O4*      -31.6960  -38.3700   14.6350 O.3    16  A16        -0.3484
    895  C3*      -31.2830  -38.8370   16.9440 C.3    16  A16         0.0983
    896  O3*      -32.2500  -39.7440   17.4760 O.3    16  A16        -0.3213
    897  C2*      -30.2470  -39.5380   16.0910 C.3    16  A16         0.0220
    898  C1*      -30.8840  -39.5380   14.7020 C.3    16  A16         0.1408
    899  N1       -29.4510  -41.5670   10.2140 N.ar   16  A16        -0.2188
    900  C2       -30.4350  -41.8820   11.0670 C.ar   16  A16         0.1205
    901  N3       -30.7500  -41.2910   12.2170 N.ar   16  A16        -0.2159
    902  C4       -29.9200  -40.2740   12.4980 C.ar   16  A16         0.1673
    903  C5       -28.8380  -39.8580   11.7480 C.ar   16  A16         0.1473
    904  C6       -28.6270  -40.5470   10.5340 C.ar   16  A16         0.1472
    905  N6       -27.6690  -40.2270    9.6520 N.pl3  16  A16        -0.3413
    906  N7       -28.1530  -38.8150   12.3740 N.ar   16  A16        -0.2306
    907  C8       -28.8650  -38.6070   13.4650 C.ar   16  A16         0.1003
    908  N9       -29.9290  -39.4720   13.6080 N.ar   16  A16        -0.2879
    909  H2       -31.0790  -42.7220   10.7750 H      16  A16         0.1048
    910 1H6       -27.2790  -39.3170    9.7030 H      16  A16         0.1438
    911 2H6       -27.6770  -40.7110    8.7740 H      16  A16         0.1438
    912  H8       -28.6620  -37.8310   14.2140 H      16  A16         0.1030
    913  H1*      -31.5720  -40.4130   14.6110 H      16  A16         0.0840
    914 1H2*      -29.3170  -38.9300   16.1060 H      16  A16         0.0335
    915 2H2*      -30.0040  -40.5470   16.4450 H      16  A16         0.0335
    916  H3*      -30.7930  -38.2690   17.7670 H      16  A16         0.0628
    917  H4*      -32.9870  -37.7490   16.1690 H      16  A16         0.0646
    918 1H5*      -31.7460  -35.7540   15.3530 H      16  A16         0.0591
    919 2H5*      -31.4440  -36.0350   17.1140 H      16  A16         0.0591
    920  P        -31.8860  -40.8340   18.5570 P.3    17  C17         0.2130
    921  O1P      -32.7860  -40.6690   19.7170 O.3    17  C17        -0.4373
    922  O2P      -30.4240  -40.8220   18.7960 O.co2  17  C17        -0.5172
    923  C5*      -33.4920  -42.3850   17.1440 C.3    17  C17         0.0836
    924  O5*      -32.2220  -42.1880   17.8090 O.3    17  C17        -0.3248
    925  C4*      -33.4540  -43.5440   16.1260 C.3    17  C17         0.1114
    926  O4*      -32.4780  -43.2700   15.0760 O.3    17  C17        -0.3483
    927  C3*      -33.0530  -44.9010   16.7360 C.3    17  C17         0.0983
    928  O3*      -33.8390  -45.9860   16.2290 O.3    17  C17        -0.3213
    929  C2*      -31.5900  -45.0460   16.3540 C.3    17  C17         0.0221
    930  C1*      -31.5260  -44.3370   15.0000 C.3    17  C17         0.1423
    931  N1       -30.2150  -43.7550   14.6900 N.ar   17  C17        -0.2725
    932  C2       -29.5150  -44.0650   13.5280 C.ar   17  C17         0.3521
    933  O2       -29.9830  -44.8830   12.7280 O.2    17  C17        -0.2444
    934  N3       -28.3230  -43.4780   13.2880 N.ar   17  C17        -0.1783
    935  C4       -27.8120  -42.6200   14.1750 C.ar   17  C17         0.1230
    936  N4       -26.6920  -41.9960   13.8460 N.pl3  17  C17        -0.3430
    937  C5       -28.4720  -42.3330   15.4020 C.ar   17  C17        -0.0056
    938  C6       -29.6650  -42.9100   15.6160 C.ar   17  C17         0.0151
    939 1H4       -26.2550  -42.3000   12.9920 H      17  C17         0.1437
    940 2H4       -26.2590  -41.3300   14.4400 H      17  C17         0.1437
    941  H5       -28.0390  -41.6260   16.1050 H      17  C17         0.0666
    942  H6       -30.2870  -42.6970   16.4930 H      17  C17         0.0812
    943  H1*      -31.9020  -45.0270   14.2060 H      17  C17         0.0840
    944 1H2*      -30.9950  -44.5150   17.1250 H      17  C17         0.0335
    945 2H2*      -31.2310  -46.0860   16.2840 H      17  C17         0.0335
    946  H3*      -33.1630  -44.8000   17.8430 H      17  C17         0.0628
    947  H4*      -34.4480  -43.6590   15.6450 H      17  C17         0.0646
    948 1H5*      -33.8150  -41.4720   16.5890 H      17  C17         0.0591
    949 2H5*      -34.2700  -42.6150   17.9060 H      17  C17         0.0591
    950  P        -33.7690  -47.3880   16.9530 P.3    18  A18         0.2130
    951  O1P      -35.0310  -48.1090   16.6880 O.2    18  A18        -0.5172
    952  O2P      -33.3750  -47.1840   18.3640 O.co2  18  A18        -0.4373
    953  C5*      -32.7100  -48.5590   14.8410 C.3    18  A18         0.0836
    954  O5*      -32.5830  -48.1200   16.2120 O.3    18  A18        -0.3248
    955  C4*      -31.4130  -49.2300   14.3530 C.3    18  A18         0.1114
    956  O4*      -30.3930  -48.2010   14.1050 O.3    18  A18        -0.3484
    957  C3*      -30.7520  -50.1830   15.3980 C.3    18  A18         0.0983
    958  O3*      -30.1900  -51.3700   14.8250 O.3    18  A18        -0.3213
    959  C2*      -29.6070  -49.3400   15.9220 C.3    18  A18         0.0220
    960  C1*      -29.1710  -48.6960   14.6100 C.3    18  A18         0.1408
    961  N1       -25.1270  -46.2150   12.5870 N.ar   18  A18        -0.2188
    962  C2       -25.7930  -47.3060   12.1880 C.ar   18  A18         0.1205
    963  N3       -26.8190  -47.9220   12.7800 N.ar   18  A18        -0.2159
    964  C4       -27.2030  -47.2770   13.8960 C.ar   18  A18         0.1673
    965  C5       -26.5970  -46.1690   14.4560 C.ar   18  A18         0.1473
    966  C6       -25.5030  -45.6260   13.7450 C.ar   18  A18         0.1472
    967  N6       -24.7940  -44.5680   14.1660 N.pl3  18  A18        -0.3413
    968  N7       -27.2370  -45.7880   15.6380 N.ar   18  A18        -0.2306
    969  C8       -28.2180  -46.6570   15.7430 C.ar   18  A18         0.1003
    970  N9       -28.2380  -47.5940   14.7440 N.ar   18  A18        -0.2879
    971  H2       -25.4410  -47.7600   11.2520 H      18  A18         0.1048
    972 1H6       -24.7310  -44.3810   15.1410 H      18  A18         0.1438
    973 2H6       -24.0560  -44.2160   13.5860 H      18  A18         0.1438
    974  H8       -28.9760  -46.6600   16.5320 H      18  A18         0.1030
    975  H1*      -28.8060  -49.4610   13.8850 H      18  A18         0.0840
    976 1H2*      -30.0130  -48.5910   16.6360 H      18  A18         0.0335
    977 2H2*      -28.8270  -49.9470   16.4130 H      18  A18         0.0335
    978  H3*      -31.4780  -50.4030   16.2200 H      18  A18         0.0628
    979  H4*      -31.5960  -49.7940   13.4130 H      18  A18         0.0646
    980 1H5*      -32.9450  -47.7050   14.1620 H      18  A18         0.0591
    981 2H5*      -33.5360  -49.3060   14.7570 H      18  A18         0.0591
    982  P        -31.0820  -52.6640   14.7430 P.3    19  A19         0.2130
    983  O1P      -32.3320  -52.3460   14.0220 O.2    19  A19        -0.5172
    984  O2P      -31.1720  -53.2780   16.0830 O.co2  19  A19        -0.4373
    985  C5*      -29.9640  -53.2090   12.4340 C.3    19  A19         0.0835
    986  O5*      -30.1830  -53.5820   13.8170 O.3    19  A19        -0.3248
    987  C4*      -28.5080  -53.4490   12.0070 C.3    19  A19         0.1107
    988  O4*      -27.7020  -52.2820   12.3480 O.3    19  A19        -0.3484
    989  C3*      -27.8160  -54.6370   12.7140 C.3    19  A19         0.0877
    990  O3*      -27.0040  -55.4580   11.8740 O.3    19  A19        -0.3890
    991  C2*      -26.9510  -53.9780   13.7680 C.3    19  A19         0.0213
    992  C1*      -26.5460  -52.6860   13.0570 C.3    19  A19         0.1408
    993  N1       -23.2310  -48.8640   13.9560 N.ar   19  A19        -0.2188
    994  C2       -23.3070  -49.7640   12.9710 C.ar   19  A19         0.1205
    995  N3       -24.1770  -50.7640   12.8180 N.ar   19  A19        -0.2159
    996  C4       -25.1190  -50.7410   13.7820 C.ar   19  A19         0.1673
    997  C5       -25.1750  -49.8870   14.8660 C.ar   19  A19         0.1473
    998  C6       -24.1680  -48.8970   14.9300 C.ar   19  A19         0.1472
    999  N6       -24.0670  -47.9710   15.8940 N.pl3  19  A19        -0.3413
   1000  N7       -26.2610  -50.1880   15.6890 N.ar   19  A19        -0.2306
   1001  C8       -26.8400  -51.1980   15.0720 C.ar   19  A19         0.1003
   1002  N9       -26.1790  -51.5960   13.9380 N.ar   19  A19        -0.2879
   1003  H2       -22.5210  -49.6950   12.2070 H      19  A19         0.1048
   1004 1H6       -24.6880  -47.9410   16.6690 H      19  A19         0.1438
   1005 2H6       -23.3720  -47.2540   15.7930 H      19  A19         0.1438
   1006  H8       -27.7630  -51.6950   15.3910 H      19  A19         0.1030
   1007  H1*      -25.7650  -52.8890   12.2890 H      19  A19         0.0840
   1008 1H2*      -27.5850  -53.7650   14.6580 H      19  A19         0.0335
   1009 2H2*      -26.0760  -54.5830   14.0700 H      19  A19         0.0335
   1010  H3*      -28.6020  -55.2690   13.1890 H      19  A19         0.0621
   1011  H4*      -28.4360  -53.5840   10.9080 H      19  A19         0.0646
   1012 1H5*      -30.2230  -52.1410   12.2180 H      19  A19         0.0591
   1013 2H5*      -30.6230  -53.8390   11.7960 H      19  A19         0.0591
   1014  H3T      -26.4510  -56.0240   12.4180 H      19  A19         0.2099
   1015  C5*       16.3660  -46.0360  -13.9790 C.3     4  T4          0.0729
   1016  O5*       17.2910  -45.0900  -14.5420 O.3     4  T4         -0.3924
   1017  C4*       17.0170  -47.2520  -13.2980 C.3     4  T4          0.1107
   1018  O4*       17.7700  -48.0610  -14.2430 O.3     4  T4         -0.3483
   1019  C3*       18.0170  -46.8740  -12.2030 C.3     4  T4          0.0982
   1020  O3*       17.3050  -46.6670  -10.9790 O.3     4  T4         -0.3213
   1021  C2*       18.8520  -48.1400  -12.1400 C.3     4  T4          0.0221
   1022  C1*       18.9200  -48.6130  -13.5960 C.3     4  T4          0.1422
   1023  N1        20.1330  -48.2080  -14.3220 N.ar    4  T4         -0.2737
   1024  C2        21.2330  -49.0310  -14.2210 C.ar    4  T4          0.3313
   1025  O2        21.2270  -50.0570  -13.5560 O.2     4  T4         -0.2464
   1026  N3        22.3130  -48.6310  -14.9380 N.ar    4  T4         -0.2747
   1027  C4        22.4170  -47.5400  -15.7850 C.ar    4  T4          0.2568
   1028  O4        23.3940  -47.3930  -16.4680 O.2     4  T4         -0.2674
   1029  C5        21.2510  -46.6670  -15.7530 C.ar    4  T4          0.0302
   1030  C5M       21.2720  -45.4610  -16.6540 C.3     4  T4         -0.0332
   1031  C6        20.1840  -47.0530  -15.0830 C.ar    4  T4          0.0199
   1032  H3        23.1080  -49.2690  -14.9030 H       4  T4          0.1734
   1033  H6        19.2420  -46.4790  -15.0950 H       4  T4          0.0816
   1034  H1*       18.7870  -49.7190  -13.6160 H       4  T4          0.0840
   1035 1H2*       19.8510  -47.9610  -11.6990 H       4  T4          0.0335
   1036 2H2*       18.3250  -48.9130  -11.5400 H       4  T4          0.0335
   1037  H3*       18.5950  -45.9850  -12.5490 H       4  T4          0.0628
   1038  H4*       16.2470  -47.9180  -12.8530 H       4  T4          0.0646
   1039 1H5*       15.6950  -46.4050  -14.7870 H       4  T4          0.0584
   1040 2H5*       15.7390  -45.5140  -13.2180 H       4  T4          0.0584
   1041 1H5M       20.9130  -45.7350  -17.6700 H       4  T4          0.0280
   1042 2H5M       22.2990  -45.0420  -16.7550 H       4  T4          0.0280
   1043 3H5M       20.6140  -44.6540  -16.2600 H       4  T4          0.0280
   1044  H5T       16.7970  -44.2510  -14.5960 H       4  T4          0.2095
   1045  P         17.9080  -45.7700   -9.8360 P.3     5  T5          0.2130
   1046  O1P       16.9360  -45.8270   -8.7170 O.3     5  T5         -0.4373
   1047  O2P       18.1950  -44.4340  -10.4010 O.co2   5  T5         -0.5172
   1048  C5*       19.1320  -47.7860   -8.7640 C.3     5  T5          0.0836
   1049  O5*       19.2530  -46.4850   -9.4050 O.3     5  T5         -0.3248
   1050  C4*       20.4830  -48.4230   -8.3990 C.3     5  T5          0.1114
   1051  O4*       21.3120  -48.6550   -9.5820 O.3     5  T5         -0.3483
   1052  C3*       21.3050  -47.5460   -7.4420 C.3     5  T5          0.0983
   1053  O3*       21.7880  -48.2730   -6.3150 O.3     5  T5         -0.3213
   1054  C2*       22.4300  -47.0140   -8.3130 C.3     5  T5          0.0221
   1055  C1*       22.5930  -48.0590   -9.4170 C.3     5  T5          0.1422
   1056  N1        22.9670  -47.4490  -10.6970 N.ar    5  T5         -0.2737
   1057  C2        24.1170  -47.8250  -11.3520 C.ar    5  T5          0.3313
   1058  O2        24.8670  -48.6990  -10.9520 O.2     5  T5         -0.2464
   1059  N3        24.3680  -47.1150  -12.4950 N.ar    5  T5         -0.2747
   1060  C4        23.6470  -46.0450  -12.9770 C.ar    5  T5          0.2568
   1061  O4        24.0840  -45.3810  -13.9130 O.2     5  T5         -0.2674
   1062  C5        22.4180  -45.7560  -12.2790 C.ar    5  T5          0.0302
   1063  C5M       21.4550  -44.7190  -12.7730 C.3     5  T5         -0.0332
   1064  C6        22.1390  -46.4770  -11.1930 C.ar    5  T5          0.0199
   1065  H3        25.2430  -47.3570  -12.9470 H       5  T5          0.1734
   1066  H6        21.1710  -46.4200  -10.6870 H       5  T5          0.0816
   1067  H1*       23.2880  -48.8640   -9.0760 H       5  T5          0.0840
   1068 1H2*       22.1020  -46.0350   -8.7180 H       5  T5          0.0335
   1069 2H2*       23.3900  -46.8720   -7.7920 H       5  T5          0.0335
   1070  H3*       20.6420  -46.7120   -7.1140 H       5  T5          0.0628
   1071  H4*       20.3190  -49.4100   -7.9150 H       5  T5          0.0646
   1072 1H5*       18.5950  -48.5110   -9.4170 H       5  T5          0.0591
   1073 2H5*       18.5570  -47.6890   -7.8120 H       5  T5          0.0591
   1074 1H5M       21.9080  -44.0580  -13.5420 H       5  T5          0.0280
   1075 2H5M       21.1000  -44.0780  -11.9340 H       5  T5          0.0280
   1076 3H5M       20.5510  -45.1880  -13.2170 H       5  T5          0.0280
   1077  P         22.6360  -47.5580   -5.2060 P.3     6  G6          0.2130
   1078  O1P       22.2620  -48.0550   -3.8770 O.3     6  G6         -0.4373
   1079  O2P       22.5760  -46.0810   -5.3690 O.co2   6  G6         -0.5172
   1080  C5*       24.4180  -49.3740   -5.8070 C.3     6  G6          0.0836
   1081  O5*       24.1120  -47.9830   -5.5290 O.3     6  G6         -0.3248
   1082  C4*       25.7960  -49.5350   -6.4600 C.3     6  G6          0.1114
   1083  O4*       25.8360  -48.8380   -7.7410 O.3     6  G6         -0.3484
   1084  C3*       26.9230  -48.9140   -5.6150 C.3     6  G6          0.0983
   1085  O3*       28.0220  -49.8070   -5.4040 O.3     6  G6         -0.3213
   1086  C2*       27.3680  -47.7090   -6.4220 C.3     6  G6          0.0220
   1087  C1*       27.0760  -48.1550   -7.8470 C.3     6  G6          0.1408
   1088  N1        28.9940  -45.6720  -11.8390 N.ar    6  G6         -0.2934
   1089  C2        29.4370  -46.8150  -11.2240 C.ar    6  G6          0.1950
   1090  N2        30.5530  -47.3200  -11.6760 N.pl3   6  G6         -0.3289
   1091  N3        28.8280  -47.3900  -10.2080 N.ar    6  G6         -0.1963
   1092  C4        27.7180  -46.7360   -9.8360 C.ar    6  G6          0.1711
   1093  C5        27.1690  -45.5820  -10.3870 C.ar    6  G6          0.1721
   1094  C6        27.8500  -44.9950  -11.4790 C.ar    6  G6          0.2803
   1095  O6        27.4730  -43.9530  -12.0680 O.2     6  G6         -0.2654
   1096  N7        26.0280  -45.1830   -9.6840 N.ar    6  G6         -0.2286
   1097  C8        25.9200  -46.0930   -8.7350 C.ar    6  G6          0.1004
   1098  N9        26.9080  -47.0470   -8.7840 N.ar    6  G6         -0.2878
   1099  H1        29.5220  -45.3040  -12.6120 H       6  G6          0.1716
   1100 1H2        31.0880  -46.8740  -12.3900 H       6  G6          0.1451
   1101 2H2        30.9140  -48.0850  -11.1540 H       6  G6          0.1451
   1102  H8        25.1580  -46.1340   -7.9580 H       6  G6          0.1030
   1103  H1*       27.8330  -48.8950   -8.1950 H       6  G6          0.0840
   1104 1H2*       26.7390  -46.8370   -6.1440 H       6  G6          0.0335
   1105 2H2*       28.4400  -47.4750   -6.2840 H       6  G6          0.0335
   1106  H3*       26.4530  -48.5970   -4.6540 H       6  G6          0.0628
   1107  H4*       26.0310  -50.6040   -6.6420 H       6  G6          0.0646
   1108 1H5*       23.6760  -49.8450   -6.4970 H       6  G6          0.0591
   1109 2H5*       24.4220  -49.9540   -4.8540 H       6  G6          0.0591
   1110  P         29.0110  -49.4910   -4.2050 P.3     7  T7          0.2130
   1111  O1P       29.3180  -50.7720   -3.5300 O.2     7  T7         -0.5172
   1112  O2P       28.4580  -48.3920   -3.3800 O.co2   7  T7         -0.4373
   1113  C5*       31.1580  -49.9600   -5.5730 C.3     7  T7          0.0836
   1114  O5*       30.3040  -48.9640   -4.9510 O.3     7  T7         -0.3248
   1115  C4*       32.3720  -49.3360   -6.2770 C.3     7  T7          0.1114
   1116  O4*       31.9480  -48.4200   -7.3350 O.3     7  T7         -0.3483
   1117  C3*       33.2590  -48.5140   -5.3130 C.3     7  T7          0.0983
   1118  O3*       34.6530  -48.7740   -5.4910 O.3     7  T7         -0.3213
   1119  C2*       32.8860  -47.0790   -5.6460 C.3     7  T7          0.0221
   1120  C1*       32.5670  -47.1610   -7.1420 C.3     7  T7          0.1422
   1121  N1        31.6360  -46.1440   -7.6350 N.ar    7  T7         -0.2737
   1122  C2        31.8720  -45.5330   -8.8370 C.ar    7  T7          0.3313
   1123  O2        32.8400  -45.8050   -9.5570 O.2     7  T7         -0.2464
   1124  N3        30.9540  -44.5940   -9.1970 N.ar    7  T7         -0.2747
   1125  C4        29.8460  -44.2070   -8.4820 C.ar    7  T7          0.2568
   1126  O4        29.1170  -43.3190   -8.9230 O.2     7  T7         -0.2674
   1127  C5        29.6220  -44.9190   -7.2550 C.ar    7  T7          0.0302
   1128  C5M       28.4510  -44.5040   -6.4180 C.3     7  T7         -0.0332
   1129  C6        30.5140  -45.8490   -6.8930 C.ar    7  T7          0.0199
   1130  H3        31.1960  -44.0430  -10.0100 H       7  T7          0.1734
   1131  H6        30.3420  -46.5300   -6.0510 H       7  T7          0.0816
   1132  H1*       33.5280  -47.2040   -7.7110 H       7  T7          0.0840
   1133 1H2*       31.9890  -46.8280   -5.0430 H       7  T7          0.0335
   1134 2H2*       33.6650  -46.3370   -5.4140 H       7  T7          0.0335
   1135  H3*       32.9460  -48.7610   -4.2690 H       7  T7          0.0628
   1136  H4*       32.9960  -50.1220   -6.7500 H       7  T7          0.0646
   1137 1H5*       30.5880  -50.5570   -6.3250 H       7  T7          0.0591
   1138 2H5*       31.5570  -50.6620   -4.7990 H       7  T7          0.0591
   1139 1H5M       27.5020  -44.5680   -6.9950 H       7  T7          0.0280
   1140 2H5M       28.5750  -43.4490   -6.0880 H       7  T7          0.0280
   1141 3H5M       28.3490  -45.1420   -5.5130 H       7  T7          0.0280
   1142  P         35.7670  -48.0470   -4.6400 P.3     8  G8          0.2130
   1143  O1P       36.8300  -49.0320   -4.3540 O.2     8  G8         -0.5172
   1144  O2P       35.1580  -47.3480   -3.4880 O.co2   8  G8         -0.4373
   1145  C5*       36.7380  -47.4250   -6.9780 C.3     8  G8          0.0836
   1146  O5*       36.3190  -46.9660   -5.6660 O.3     8  G8         -0.3248
   1147  C4*       37.2930  -46.2940   -7.8610 C.3     8  G8          0.1114
   1148  O4*       36.2050  -45.4520   -8.3450 O.3     8  G8         -0.3484
   1149  C3*       38.2680  -45.3390   -7.1440 C.3     8  G8          0.0983
   1150  O3*       39.3700  -44.9770   -7.9810 O.3     8  G8         -0.3213
   1151  C2*       37.3940  -44.1450   -6.8050 C.3     8  G8          0.0220
   1152  C1*       36.4660  -44.0890   -8.0080 C.3     8  G8          0.1408
   1153  N1        33.3530  -40.3270   -9.2920 N.ar    8  G8         -0.2934
   1154  C2        34.5780  -40.6390   -9.8010 C.ar    8  G8          0.1950
   1155  N2        35.0440  -39.8480  -10.7380 N.pl3   8  G8         -0.3289
   1156  N3        35.3130  -41.6420   -9.3580 N.ar    8  G8         -0.1963
   1157  C4        34.7060  -42.3300   -8.3720 C.ar    8  G8          0.1711
   1158  C5        33.4870  -42.0840   -7.7760 C.ar    8  G8          0.1721
   1159  C6        32.7060  -41.0050   -8.2680 C.ar    8  G8          0.2803
   1160  O6        31.5950  -40.6630   -7.8510 O.2     8  G8         -0.2654
   1161  N7        33.2280  -43.0080   -6.7600 N.ar    8  G8         -0.2286
   1162  C8        34.2850  -43.7970   -6.7830 C.ar    8  G8          0.1004
   1163  N9        35.1990  -43.4360   -7.7410 N.ar    8  G8         -0.2878
   1164  H1        32.8560  -39.5440   -9.6880 H       8  G8          0.1716
   1165 1H2        34.5420  -39.0370  -11.0510 H       8  G8          0.1451
   1166 2H2        36.0170  -39.9460  -10.9230 H       8  G8          0.1451
   1167  H8        34.4650  -44.6680   -6.1440 H       8  G8          0.1030
   1168  H1*       36.9960  -43.6290   -8.8760 H       8  G8          0.0840
   1169 1H2*       36.8210  -44.3970   -5.8860 H       8  G8          0.0335
   1170 2H2*       37.9340  -43.2000   -6.6300 H       8  G8          0.0335
   1171  H3*       38.6260  -45.8430   -6.2140 H       8  G8          0.0628
   1172  H4*       37.8010  -46.7230   -8.7510 H       8  G8          0.0646
   1173 1H5*       35.8840  -47.8930   -7.5240 H       8  G8          0.0591
   1174 2H5*       37.5450  -48.1890   -6.8750 H       8  G8          0.0591
   1175  P         40.5090  -44.0200   -7.4540 P.3     9  A9          0.2130
   1176  O1P       41.7950  -44.4830   -8.0100 O.2     9  A9         -0.5172
   1177  O2P       40.4100  -43.8700   -5.9860 O.co2   9  A9         -0.4373
   1178  C5*       40.0810  -42.5740   -9.5890 C.3     9  A9          0.0836
   1179  O5*       40.1340  -42.6410   -8.1400 O.3     9  A9         -0.3248
   1180  C4*       40.0890  -41.1260  -10.1220 C.3     9  A9          0.1114
   1181  O4*       38.8070  -40.4840   -9.8510 O.3     9  A9         -0.3484
   1182  C3*       41.1610  -40.2290   -9.4680 C.3     9  A9          0.0983
   1183  O3*       41.7720  -39.3360  -10.4050 O.3     9  A9         -0.3213
   1184  C2*       40.3940  -39.4890   -8.3830 C.3     9  A9          0.0220
   1185  C1*       38.9690  -39.3960   -8.9410 C.3     9  A9          0.1408
   1186  N1        34.4100  -37.7830   -7.2110 N.ar    9  A9         -0.2188
   1187  C2        35.1960  -37.3320   -8.1920 C.ar    9  A9          0.1205
   1188  N3        36.3760  -37.7950   -8.5880 N.ar    9  A9         -0.2159
   1189  C4        36.7770  -38.8340   -7.8290 C.ar    9  A9          0.1673
   1190  C5        36.0940  -39.3910   -6.7660 C.ar    9  A9          0.1473
   1191  C6        34.8350  -38.8260   -6.4680 C.ar    9  A9          0.1472
   1192  N6        33.9990  -39.2520   -5.5130 N.pl3   9  A9         -0.3413
   1193  N7        36.7900  -40.4650   -6.2280 N.ar    9  A9         -0.2306
   1194  C8        37.8740  -40.5260   -6.9730 C.ar    9  A9          0.1003
   1195  N9        37.9290  -39.5580   -7.9450 N.ar    9  A9         -0.2879
   1196  H2        34.8110  -36.4810   -8.7700 H       9  A9          0.1048
   1197 1H6        33.1070  -38.8050   -5.4230 H       9  A9          0.1438
   1198 2H6        34.2990  -39.9120   -4.8310 H       9  A9          0.1438
   1199  H8        38.6780  -41.2600   -6.8620 H       9  A9          0.1030
   1200  H1*       38.8580  -38.4590   -9.5380 H       9  A9          0.0840
   1201 1H2*       40.4340  -40.1090   -7.4620 H       9  A9          0.0335
   1202 2H2*       40.8050  -38.4880   -8.1580 H       9  A9          0.0335
   1203  H3*       41.9280  -40.9050   -9.0150 H       9  A9          0.0628
   1204  H4*       40.2400  -41.1270  -11.2230 H       9  A9          0.0646
   1205 1H5*       39.1630  -43.0840   -9.9630 H       9  A9          0.0591
   1206 2H5*       40.9640  -43.0850  -10.0430 H       9  A9          0.0591
   1207  P         43.0130  -38.4510   -9.9740 P.3    10  G10         0.2130
   1208  O1P       43.8990  -38.2950  -11.1470 O.2    10  G10        -0.5172
   1209  O2P       43.6000  -38.9930   -8.7300 O.co2  10  G10        -0.4373
   1210  C5*       41.5730  -36.3660  -10.6520 C.3    10  G10         0.0836
   1211  O5*       42.3470  -37.0520   -9.6370 O.3    10  G10        -0.3248
   1212  C4*       40.6970  -35.2510  -10.0550 C.3    10  G10         0.1114
   1213  O4*       39.6790  -35.8360   -9.1780 O.3    10  G10        -0.3484
   1214  C3*       41.4500  -34.2390   -9.1510 C.3    10  G10         0.0983
   1215  O3*       41.0950  -32.8760   -9.4040 O.3    10  G10        -0.3213
   1216  C2*       40.9810  -34.5900   -7.7540 C.3    10  G10         0.0220
   1217  C1*       39.5420  -34.9790   -8.0580 C.3    10  G10         0.1408
   1218  N1        35.4590  -35.2660   -5.0720 N.ar   10  G10        -0.2934
   1219  C2        35.7290  -34.3860   -6.0780 C.ar   10  G10         0.1950
   1220  N2        34.8130  -33.4800   -6.3290 N.pl3  10  G10        -0.3289
   1221  N3        36.8400  -34.4110   -6.7890 N.ar   10  G10        -0.1963
   1222  C4        37.6560  -35.4220   -6.4360 C.ar   10  G10         0.1711
   1223  C5        37.4740  -36.3650   -5.4430 C.ar   10  G10         0.1721
   1224  C6        36.2780  -36.3110   -4.6690 C.ar   10  G10         0.2803
   1225  O6        35.9460  -37.0640   -3.7480 O.2    10  G10        -0.2654
   1226  N7        38.5670  -37.2360   -5.3810 N.ar   10  G10        -0.2286
   1227  C8        39.3680  -36.8060   -6.3310 C.ar   10  G10         0.1004
   1228  N9        38.8760  -35.7070   -6.9890 N.ar   10  G10        -0.2878
   1229  H1        34.5820  -35.1900   -4.5850 H      10  G10         0.1716
   1230 1H2        33.9150  -33.4860   -5.8840 H      10  G10         0.1451
   1231 2H2        34.9810  -32.9320   -7.1440 H      10  G10         0.1451
   1232  H8        40.3250  -37.2520   -6.6110 H      10  G10         0.1030
   1233  H1*       38.9550  -34.0900   -8.3910 H      10  G10         0.0840
   1234 1H2*       41.5720  -35.4530   -7.3810 H      10  G10         0.0335
   1235 2H2*       41.0580  -33.7320   -7.0620 H      10  G10         0.0335
   1236  H3*       42.5440  -34.4430   -9.2510 H      10  G10         0.0628
   1237  H4*       40.1830  -34.6880  -10.8630 H      10  G10         0.0646
   1238 1H5*       40.8940  -37.0650  -11.1970 H      10  G10         0.0591
   1239 2H5*       42.2650  -35.9090  -11.3970 H      10  G10         0.0591
   1240  P         42.1650  -31.8290   -9.8990 P.3    11  C11         0.2130
   1241  O1P       41.9110  -31.5370  -11.3300 O.2    11  C11        -0.5172
   1242  O2P       43.5190  -32.2890   -9.5210 O.co2  11  C11        -0.4373
   1243  C5*       40.5850  -29.8100   -9.2500 C.3    11  C11         0.0836
   1244  O5*       41.8280  -30.5310   -9.0440 O.3    11  C11        -0.3248
   1245  C4*       39.8350  -29.4810   -7.9440 C.3    11  C11         0.1114
   1246  O4*       39.5810  -30.6950   -7.1990 O.3    11  C11        -0.3483
   1247  C3*       40.5870  -28.6080   -6.9020 C.3    11  C11         0.0983
   1248  O3*       40.0920  -27.2570   -6.8830 O.3    11  C11        -0.3213
   1249  C2*       40.2930  -29.3120   -5.5630 C.3    11  C11         0.0221
   1250  C1*       39.1600  -30.2780   -5.9180 C.3    11  C11         0.1423
   1251  N1        39.0730  -31.4750   -5.0590 N.ar   11  C11        -0.2725
   1252  C2        37.8870  -31.8120   -4.4090 C.ar   11  C11         0.3521
   1253  O2        36.8900  -31.1000   -4.5300 O.2    11  C11        -0.2444
   1254  N3        37.8440  -32.9140   -3.6350 N.ar   11  C11        -0.1783
   1255  C4        38.8970  -33.7230   -3.5550 C.ar   11  C11         0.1230
   1256  N4        38.7560  -34.8200   -2.8210 N.pl3  11  C11        -0.3430
   1257  C5        40.1120  -33.4440   -4.2490 C.ar   11  C11        -0.0056
   1258  C6        40.1590  -32.3080   -4.9670 C.ar   11  C11         0.0151
   1259 1H4        37.9210  -34.8930   -2.2730 H      11  C11         0.1437
   1260 2H4        39.4870  -35.4810   -2.6930 H      11  C11         0.1437
   1261  H5        40.9450  -34.1330   -4.1880 H      11  C11         0.0666
   1262  H6        41.0390  -31.9860   -5.5390 H      11  C11         0.0812
   1263  H1*       38.1950  -29.7320   -6.0450 H      11  C11         0.0840
   1264 1H2*       41.2010  -29.8530   -5.2360 H      11  C11         0.0335
   1265 2H2*       39.9850  -28.6010   -4.7730 H      11  C11         0.0335
   1266  H3*       41.6770  -28.6850   -7.1300 H      11  C11         0.0628
   1267  H4*       38.8530  -29.0070   -8.1640 H      11  C11         0.0646
   1268 1H5*       39.8650  -30.3700   -9.8990 H      11  C11         0.0591
   1269 2H5*       40.8070  -28.8510   -9.7650 H      11  C11         0.0591
   1270  P         41.0220  -26.0270   -7.1410 P.3    12  G12         0.2130
   1271  O1P       40.2190  -24.7760   -7.0700 O.3    12  G12        -0.4373
   1272  O2P       41.7830  -26.1840   -8.4080 O.co2  12  G12        -0.5172
   1273  C5*       41.6660  -25.4410   -4.6850 C.3    12  G12         0.0836
   1274  O5*       42.0630  -26.0270   -5.9500 O.3    12  G12        -0.3248
   1275  C4*       42.3000  -26.1060   -3.4500 C.3    12  G12         0.1114
   1276  O4*       41.9130  -27.4870   -3.3120 O.3    12  G12        -0.3484
   1277  C3*       43.8390  -26.1800   -3.3830 C.3    12  G12         0.0983
   1278  O3*       44.3220  -25.1400   -2.5310 O.3    12  G12        -0.3213
   1279  C2*       44.1060  -27.6060   -2.8360 C.3    12  G12         0.0220
   1280  C1*       42.7340  -27.9880   -2.2830 C.3    12  G12         0.1408
   1281  N1        40.2640  -31.6010    0.3150 N.ar   12  G12        -0.2934
   1282  C2        40.3430  -30.2630    0.5800 C.ar   12  G12         0.1950
   1283  N2        39.6840  -29.8520    1.6320 N.pl3  12  G12        -0.3289
   1284  N3        41.0280  -29.4090   -0.1670 N.ar   12  G12        -0.1963
   1285  C4        41.6700  -30.0160   -1.1920 C.ar   12  G12         0.1711
   1286  C5        41.6830  -31.3610   -1.5140 C.ar   12  G12         0.1721
   1287  C6        40.9060  -32.2500   -0.7230 C.ar   12  G12         0.2803
   1288  O6        40.7690  -33.4660   -0.8880 O.2    12  G12        -0.2654
   1289  N7        42.4690  -31.5960   -2.6460 N.ar   12  G12        -0.2286
   1290  C8        42.8870  -30.4040   -2.9920 C.ar   12  G12         0.1004
   1291  N9        42.4500  -29.4100   -2.1470 N.ar   12  G12        -0.2878
   1292  H1        39.7170  -32.1830    0.9290 H      12  G12         0.1716
   1293 1H2        39.1960  -30.4930    2.2310 H      12  G12         0.1451
   1294 2H2        39.8200  -28.9090    1.9260 H      12  G12         0.1451
   1295  H8        43.5060  -30.1840   -3.8620 H      12  G12         0.1030
   1296  H1*       42.5270  -27.4320   -1.3430 H      12  G12         0.0840
   1297 1H2*       44.3970  -28.2550   -3.6870 H      12  G12         0.0335
   1298 2H2*       44.8750  -27.6710   -2.0470 H      12  G12         0.0335
   1299  H3*       44.2400  -26.0760   -4.4160 H      12  G12         0.0628
   1300  H4*       41.9510  -25.5790   -2.5410 H      12  G12         0.0646
   1301 1H5*       40.5620  -25.4860   -4.5230 H      12  G12         0.0591
   1302 2H5*       41.9680  -24.3690   -4.6780 H      12  G12         0.0591
   1303  P         45.7970  -25.0300   -2.0330 P.3    13  C13         0.2130
   1304  O1P       46.1140  -23.6040   -1.7890 O.3    13  C13        -0.4373
   1305  O2P       46.7020  -25.7640   -2.9380 O.co2  13  C13        -0.5172
   1306  C5*       45.1340  -25.0190    0.4660 C.3    13  C13         0.0836
   1307  O5*       45.7430  -25.7560   -0.6350 O.3    13  C13        -0.3248
   1308  C4*       44.5460  -25.9070    1.5760 C.3    13  C13         0.1114
   1309  O4*       43.7930  -27.0270    1.0590 O.3    13  C13        -0.3483
   1310  C3*       45.5680  -26.5380    2.5240 C.3    13  C13         0.0983
   1311  O3*       45.9990  -25.5620    3.4770 O.3    13  C13        -0.3213
   1312  C2*       44.6900  -27.5930    3.1810 C.3    13  C13         0.0221
   1313  C1*       43.7610  -28.0580    2.0460 C.3    13  C13         0.1423
   1314  N1        44.1010  -29.3570    1.4350 N.ar   13  C13        -0.2725
   1315  C2        43.5230  -30.5220    1.9280 C.ar   13  C13         0.3521
   1316  O2        42.7150  -30.4490    2.8680 O.2    13  C13        -0.2444
   1317  N3        43.8200  -31.7110    1.3690 N.ar   13  C13        -0.1783
   1318  C4        44.6530  -31.7650    0.3220 C.ar   13  C13         0.1230
   1319  N4        44.8410  -32.9400   -0.2520 N.pl3  13  C13        -0.3430
   1320  C5        45.3020  -30.5960   -0.1780 C.ar   13  C13        -0.0056
   1321  C6        45.0020  -29.4200    0.3980 C.ar   13  C13         0.0151
   1322 1H4        44.2720  -33.7020    0.0800 H      13  C13         0.1437
   1323 2H4        45.2300  -32.9940   -1.1660 H      13  C13         0.1437
   1324  H5        45.9890  -30.6780   -1.0150 H      13  C13         0.0666
   1325  H6        45.4040  -28.4590    0.0550 H      13  C13         0.0812
   1326  H1*       42.7140  -28.0730    2.4290 H      13  C13         0.0840
   1327 1H2*       45.2770  -28.4140    3.6280 H      13  C13         0.0335
   1328 2H2*       44.0620  -27.1410    3.9750 H      13  C13         0.0335
   1329  H3*       46.3950  -26.9630    1.9100 H      13  C13         0.0628
   1330  H4*       43.8400  -25.3150    2.1900 H      13  C13         0.0646
   1331 1H5*       44.2870  -24.3730    0.1260 H      13  C13         0.0591
   1332 2H5*       45.8960  -24.3510    0.9340 H      13  C13         0.0591
   1333  P         47.2490  -25.8410    4.3940 P.3    14  T14         0.2130
   1334  O1P       47.5900  -24.5580    5.0430 O.3    14  T14        -0.4373
   1335  O2P       48.3180  -26.5390    3.6490 O.co2  14  T14        -0.5172
   1336  C5*       45.6380  -26.4730    6.3840 C.3    14  T14         0.0836
   1337  O5*       46.6920  -26.8320    5.4670 O.3    14  T14        -0.3248
   1338  C4*       45.3160  -27.6230    7.3550 C.3    14  T14         0.1114
   1339  O4*       44.9800  -28.8510    6.6300 O.3    14  T14        -0.3483
   1340  C3*       46.4960  -27.9720    8.2760 C.3    14  T14         0.0983
   1341  O3*       46.0860  -28.1710    9.6280 O.3    14  T14        -0.3213
   1342  C2*       47.0640  -29.2420    7.6660 C.3    14  T14         0.0221
   1343  C1*       45.8430  -29.9150    7.0340 C.3    14  T14         0.1422
   1344  N1        46.1450  -30.7170    5.8340 N.ar   14  T14        -0.2737
   1345  C2        45.7460  -32.0220    5.7380 C.ar   14  T14         0.3313
   1346  O2        45.1370  -32.6110    6.6370 O.2    14  T14        -0.2464
   1347  N3        46.0850  -32.6470    4.5710 N.ar   14  T14        -0.2747
   1348  C4        46.7840  -32.1100    3.5240 C.ar   14  T14         0.2568
   1349  O4        47.0180  -32.8130    2.5290 O.2    14  T14        -0.2674
   1350  C5        47.1740  -30.7350    3.6760 C.ar   14  T14         0.0302
   1351  C5M       48.0360  -30.0670    2.6530 C.3    14  T14        -0.0332
   1352  C6        46.8580  -30.1180    4.8280 C.ar   14  T14         0.0199
   1353  H3        45.8080  -33.6170    4.5020 H      14  T14         0.1734
   1354  H6        47.0310  -29.0500    4.9670 H      14  T14         0.0816
   1355  H1*       45.2870  -30.4770    7.8220 H      14  T14         0.0840
   1356 1H2*       47.8110  -28.9420    6.9030 H      14  T14         0.0335
   1357 2H2*       47.5550  -29.8910    8.4060 H      14  T14         0.0335
   1358  H3*       47.2390  -27.1410    8.2030 H      14  T14         0.0628
   1359  H4*       44.4490  -27.3540    7.9930 H      14  T14         0.0646
   1360 1H5*       44.7020  -26.2250    5.8340 H      14  T14         0.0591
   1361 2H5*       45.9360  -25.5810    6.9840 H      14  T14         0.0591
   1362 1H5M       47.8360  -30.4590    1.6300 H      14  T14         0.0280
   1363 2H5M       49.1150  -30.2230    2.8790 H      14  T14         0.0280
   1364 3H5M       47.8520  -28.9680    2.6330 H      14  T14         0.0280
   1365  P         47.1670  -28.3180   10.7690 P.3    15  C15         0.2130
   1366  O1P       46.7060  -27.5070   11.9170 O.3    15  C15        -0.4373
   1367  O2P       48.5130  -28.0060   10.2330 O.co2  15  C15        -0.5172
   1368  C5*       45.8070  -30.4470   11.4310 C.3    15  C15         0.0836
   1369  O5*       47.1020  -29.8710   11.1140 O.3    15  C15        -0.3248
   1370  C4*       45.8710  -31.9430   11.8020 C.3    15  C15         0.1114
   1371  O4*       46.0180  -32.7610   10.6030 O.3    15  C15        -0.3483
   1372  C3*       47.0300  -32.3410   12.7270 C.3    15  C15         0.0983
   1373  O3*       46.6200  -33.2730   13.7300 O.3    15  C15        -0.3213
   1374  C2*       48.0560  -32.9480   11.7880 C.3    15  C15         0.0221
   1375  C1*       47.2000  -33.5620   10.6720 C.3    15  C15         0.1423
   1376  N1        47.8040  -33.5380    9.3290 N.ar   15  C15        -0.2725
   1377  C2        47.8450  -34.6470    8.4870 C.ar   15  C15         0.3521
   1378  O2        47.4040  -35.7440    8.8780 O.2    15  C15        -0.2444
   1379  N3        48.3760  -34.5360    7.2520 N.ar   15  C15        -0.1783
   1380  C4        48.8470  -33.3560    6.8360 C.ar   15  C15         0.1230
   1381  N4        49.3470  -33.2970    5.6160 N.pl3  15  C15        -0.3430
   1382  C5        48.8360  -32.2070    7.6720 C.ar   15  C15        -0.0056
   1383  C6        48.2950  -32.3330    8.8900 C.ar   15  C15         0.0151
   1384 1H4        49.3910  -34.1480    5.0850 H      15  C15         0.1437
   1385 2H4        49.8580  -32.4960    5.2850 H      15  C15         0.1437
   1386  H5        49.2080  -31.2560    7.2910 H      15  C15         0.0666
   1387  H6        48.1850  -31.4960    9.5900 H      15  C15         0.0812
   1388  H1*       46.8700  -34.5820   10.9800 H      15  C15         0.0840
   1389 1H2*       48.7090  -32.1330   11.4190 H      15  C15         0.0335
   1390 2H2*       48.6930  -33.7060   12.2680 H      15  C15         0.0335
   1391  H3*       47.4270  -31.4040   13.1880 H      15  C15         0.0628
   1392  H4*       44.9200  -32.2440   12.2860 H      15  C15         0.0646
   1393 1H5*       45.1010  -30.3430   10.5720 H      15  C15         0.0591
   1394 2H5*       45.3610  -29.9160   12.3060 H      15  C15         0.0591
   1395  P         47.6070  -33.6600   14.9020 P.3    16  A16         0.2130
   1396  O1P       46.8340  -33.6820   16.1600 O.3    16  A16        -0.4373
   1397  O2P       48.8140  -32.8050   14.8550 O.co2  16  A16        -0.5172
   1398  C5*       46.9800  -36.1600   14.5040 C.3    16  A16         0.0836
   1399  O5*       48.0150  -35.1420   14.5170 O.3    16  A16        -0.3248
   1400  C4*       47.4990  -37.5170   13.9930 C.3    16  A16         0.1114
   1401  O4*       47.9070  -37.4030   12.5920 O.3    16  A16        -0.3484
   1402  C3*       48.7420  -38.0160   14.7610 C.3    16  A16         0.0983
   1403  O3*       48.7060  -39.4230   15.0380 O.3    16  A16        -0.3213
   1404  C2*       49.8870  -37.6390   13.8340 C.3    16  A16         0.0220
   1405  C1*       49.2670  -37.7840   12.4460 C.3    16  A16         0.1408
   1406  N1        50.9690  -37.2960    7.6020 N.ar   16  A16        -0.2188
   1407  C2        50.3770  -38.3150    8.2370 C.ar   16  A16         0.1205
   1408  N3        49.9340  -38.3710    9.4930 N.ar   16  A16        -0.2159
   1409  C4        50.1330  -37.2080   10.1370 C.ar   16  A16         0.1673
   1410  C5        50.7400  -36.0780    9.6270 C.ar   16  A16         0.1473
   1411  C6        51.1660  -36.1460    8.2820 C.ar   16  A16         0.1472
   1412  N6        51.7790  -35.1420    7.6360 N.pl3  16  A16        -0.3413
   1413  N7        50.8430  -35.0780   10.5950 N.ar   16  A16        -0.2306
   1414  C8        50.2770  -35.6230   11.6500 C.ar   16  A16         0.1003
   1415  N9        49.8660  -36.9160   11.4490 N.ar   16  A16        -0.2879
   1416  H2        50.2390  -39.2330    7.6490 H      16  A16         0.1048
   1417 1H6        52.0400  -35.2860    6.6770 H      16  A16         0.1438
   1418 2H6        51.8360  -34.2400    8.0450 H      16  A16         0.1438
   1419  H8        50.1290  -35.1270   12.6160 H      16  A16         0.1030
   1420  H1*       49.2670  -38.8570   12.1370 H      16  A16         0.0840
   1421 1H2*       50.1330  -36.5800   14.0630 H      16  A16         0.0335
   1422 2H2*       50.8050  -38.2390   13.9520 H      16  A16         0.0335
   1423  H3*       48.7990  -37.4320   15.7130 H      16  A16         0.0628
   1424  H4*       46.7020  -38.2870   14.0570 H      16  A16         0.0646
   1425 1H5*       46.1250  -35.8580   13.8520 H      16  A16         0.0591
   1426 2H5*       46.5850  -36.3130   15.5370 H      16  A16         0.0591
   1427  P         49.9210  -40.0800   15.8210 P.3    17  C17         0.2130
   1428  O1P       49.4010  -41.1120   16.7430 O.3    17  C17        -0.4373
   1429  O2P       50.7640  -39.0080   16.3980 O.co2  17  C17        -0.5172
   1430  C5*       50.1900  -42.0380   14.1310 C.3    17  C17         0.0836
   1431  O5*       50.7180  -40.7780   14.6310 O.3    17  C17        -0.3248
   1432  C4*       50.8160  -42.4970   12.7980 C.3    17  C17         0.1114
   1433  O4*       50.6500  -41.4930   11.7500 O.3    17  C17        -0.3483
   1434  C3*       52.3250  -42.7850   12.8340 C.3    17  C17         0.0983
   1435  O3*       52.5570  -44.1190   13.3030 O.3    17  C17        -0.3213
   1436  C2*       52.6670  -42.6710   11.3570 C.3    17  C17         0.0221
   1437  C1*       51.7870  -41.5200   10.8710 C.3    17  C17         0.1423
   1438  N1        52.4620  -40.2030   10.8410 N.ar   17  C17        -0.2725
   1439  C2        53.2050  -39.8190    9.7250 C.ar   17  C17         0.3521
   1440  O2        53.2940  -40.5830    8.7530 O.2    17  C17        -0.2444
   1441  N3        53.8120  -38.6090    9.7060 N.ar   17  C17        -0.1783
   1442  C4        53.7570  -37.8250   10.7800 C.ar   17  C17         0.1230
   1443  N4        54.3420  -36.6400   10.6730 N.pl3  17  C17        -0.3430
   1444  C5        53.0820  -38.2220   11.9730 C.ar   17  C17        -0.0056
   1445  C6        52.4750  -39.4190   11.9680 C.ar   17  C17         0.0151
   1446 1H4        54.7620  -36.4490    9.7830 H      17  C17         0.1437
   1447 2H4        54.3700  -35.9770   11.4080 H      17  C17         0.1437
   1448  H5        53.0600  -37.5630   12.8380 H      17  C17         0.0666
   1449  H6        51.8920  -39.8020   12.8170 H      17  C17         0.0812
   1450  H1*       51.3970  -41.7700    9.8570 H      17  C17         0.0840
   1451 1H2*       53.7460  -42.5020   11.1840 H      17  C17         0.0335
   1452 2H2*       52.3600  -43.5940   10.8200 H      17  C17         0.0335
   1453  H3*       52.8040  -41.9990   13.4650 H      17  C17         0.0628
   1454  H4*       50.3130  -43.4210   12.4450 H      17  C17         0.0646
   1455 1H5*       49.0870  -41.9720   13.9630 H      17  C17         0.0591
   1456 2H5*       50.3740  -42.8450   14.8800 H      17  C17         0.0591
   1457  P         54.0280  -44.5280   13.7270 P.3    18  A18         0.2130
   1458  O1P       53.9660  -45.8270   14.4280 O.3    18  A18        -0.4373
   1459  O2P       54.6790  -43.3950   14.4140 O.co2  18  A18        -0.5172
   1460  C5*       54.3440  -45.6790   11.3740 C.3    18  A18         0.0836
   1461  O5*       54.7730  -44.7210   12.3570 O.3    18  A18        -0.3248
   1462  C4*       55.2610  -45.6490   10.1390 C.3    18  A18         0.1114
   1463  O4*       55.3860  -44.2960    9.5670 O.3    18  A18        -0.3484
   1464  C3*       56.6850  -46.0820   10.5110 C.3    18  A18         0.0983
   1465  O3*       57.2550  -46.9460    9.5280 O.3    18  A18        -0.3213
   1466  C2*       57.4390  -44.7680   10.6480 C.3    18  A18         0.0220
   1467  C1*       56.7520  -43.8560    9.6340 C.3    18  A18         0.1408
   1468  N1        58.1130  -39.0330    8.3410 N.ar   18  A18        -0.2188
   1469  C2        58.2130  -40.1920    7.6780 C.ar   18  A18         0.1205
   1470  N3        57.8550  -41.4160    8.0780 N.ar   18  A18        -0.2159
   1471  C4        57.2770  -41.3900    9.2950 C.ar   18  A18         0.1673
   1472  C5        57.0880  -40.2760   10.0930 C.ar   18  A18         0.1473
   1473  C6        57.5560  -39.0450    9.5740 C.ar   18  A18         0.1472
   1474  N6        57.5050  -37.8830   10.2430 N.pl3  18  A18        -0.3413
   1475  N7        56.4770  -40.6200   11.2990 N.ar   18  A18        -0.2306
   1476  C8        56.3100  -41.9250   11.2020 C.ar   18  A18         0.1003
   1477  N9        56.7690  -42.4490   10.0140 N.ar   18  A18        -0.2879
   1478  H2        58.6760  -40.1360    6.6820 H      18  A18         0.1048
   1479 1H6        57.3420  -37.8930   11.2230 H      18  A18         0.1438
   1480 2H6        58.0150  -37.1060    9.8640 H      18  A18         0.1438
   1481  H8        55.8430  -42.5580   11.9660 H      18  A18         0.1030
   1482  H1*       57.1970  -44.0210    8.6250 H      18  A18         0.0840
   1483 1H2*       57.2800  -44.3980   11.6850 H      18  A18         0.0335
   1484 2H2*       58.5230  -44.8460   10.4770 H      18  A18         0.0335
   1485  H3*       56.6370  -46.6000   11.5000 H      18  A18         0.0628
   1486  H4*       54.8760  -46.3390    9.3590 H      18  A18         0.0646
   1487 1H5*       53.3010  -45.4770   11.0470 H      18  A18         0.0591
   1488 2H5*       54.3680  -46.7080   11.8040 H      18  A18         0.0591
   1489  P         58.7020  -47.5380    9.7360 P.3    19  A19         0.2130
   1490  O1P       58.7520  -48.8900    9.1480 O.2    19  A19        -0.5172
   1491  O2P       59.1220  -47.3710   11.1430 O.co2  19  A19        -0.4373
   1492  C5*       59.1750  -46.3930    7.4510 C.3    19  A19         0.0835
   1493  O5*       59.5850  -46.5760    8.8310 O.3    19  A19        -0.3248
   1494  C4*       60.1980  -45.5760    6.6540 C.3    19  A19         0.1107
   1495  O4*       60.1010  -44.1730    7.0370 O.3    19  A19        -0.3484
   1496  C3*       61.6590  -45.9800    6.9390 C.3    19  A19         0.0877
   1497  O3*       62.5250  -46.0140    5.8060 O.3    19  A19        -0.3890
   1498  C2*       62.1530  -44.9400    7.9190 C.3    19  A19         0.0213
   1499  C1*       61.3510  -43.6970    7.5120 C.3    19  A19         0.1408
   1500  N1        61.4570  -38.8020    9.0840 N.ar   19  A19        -0.2188
   1501  C2        61.7550  -39.3740    7.9100 C.ar   19  A19         0.1205
   1502  N3        61.7480  -40.6710    7.5880 N.ar   19  A19        -0.2159
   1503  C4        61.2590  -41.4200    8.5890 C.ar   19  A19         0.1673
   1504  C5        60.8660  -40.9810    9.8390 C.ar   19  A19         0.1473
   1505  C6        60.9960  -39.5930   10.0830 C.ar   19  A19         0.1472
   1506  N6        60.6850  -39.0220   11.2510 N.pl3  19  A19        -0.3413
   1507  N7        60.4170  -42.0460   10.6270 N.ar   19  A19        -0.2306
   1508  C8        60.5470  -43.0890    9.8300 C.ar   19  A19         0.1003
   1509  N9        61.0690  -42.7760    8.6000 N.ar   19  A19        -0.2879
   1510  H2        62.1140  -38.6930    7.1290 H      19  A19         0.1048
   1511 1H6        60.3880  -39.5630   12.0310 H      19  A19         0.1438
   1512 2H6        60.7790  -38.0300   11.3610 H      19  A19         0.1438
   1513  H8        60.2860  -44.1190   10.0840 H      19  A19         0.1030
   1514  H1*       61.8330  -43.1910    6.6430 H      19  A19         0.0840
   1515 1H2*       61.8930  -45.2770    8.9450 H      19  A19         0.0335
   1516 2H2*       63.2430  -44.7520    7.8550 H      19  A19         0.0335
   1517  H3*       61.6380  -46.9920    7.4060 H      19  A19         0.0621
   1518  H4*       60.0030  -45.6500    5.5630 H      19  A19         0.0646
   1519 1H5*       58.1920  -45.8670    7.3900 H      19  A19         0.0591
   1520 2H5*       59.0600  -47.3810    6.9450 H      19  A19         0.0591
   1521  H3T       63.4370  -46.0830    6.1000 H      19  A19         0.2099
   1522  C5*       66.3780  -30.7850    9.2080 C.3     4  T4          0.0729
   1523  O5*       65.5630  -30.8610   10.3900 O.3     4  T4         -0.3924
   1524  C4*       65.9780  -31.8030    8.1190 C.3     4  T4          0.1107
   1525  O4*       65.5360  -33.0670    8.7160 O.3     4  T4         -0.3483
   1526  C3*       64.8100  -31.3360    7.2280 C.3     4  T4          0.0982
   1527  O3*       65.0990  -31.5040    5.8380 O.3     4  T4         -0.3213
   1528  C2*       63.6380  -32.2000    7.6740 C.3     4  T4          0.0221
   1529  C1*       64.3250  -33.4920    8.0870 C.3     4  T4          0.1422
   1530  N1        63.5600  -34.2760    9.0660 N.ar    4  T4         -0.2737
   1531  C2        63.0930  -35.5200    8.7220 C.ar    4  T4          0.3313
   1532  O2        63.2840  -36.0230    7.6260 O.2     4  T4         -0.2464
   1533  N3        62.3820  -36.1490    9.7040 N.ar    4  T4         -0.2747
   1534  C4        62.0700  -35.6620   10.9470 C.ar    4  T4          0.2568
   1535  O4        61.3710  -36.3270   11.7110 O.2     4  T4         -0.2674
   1536  C5        62.6170  -34.3640   11.2550 C.ar    4  T4          0.0302
   1537  C5M       62.3160  -33.7650   12.5940 C.3     4  T4         -0.0332
   1538  C6        63.2980  -33.7280   10.2930 C.ar    4  T4          0.0199
   1539  H3        62.0500  -37.0780    9.4650 H       4  T4          0.1734
   1540  H6        63.7570  -32.7480   10.4370 H       4  T4          0.0816
   1541  H1*       64.6110  -34.0640    7.1720 H       4  T4          0.0840
   1542 1H2*       63.1480  -31.7120    8.5420 H       4  T4          0.0335
   1543 2H2*       62.8770  -32.3770    6.8940 H       4  T4          0.0335
   1544  H3*       64.6090  -30.2680    7.4680 H       4  T4          0.0628
   1545  H4*       66.8470  -32.0080    7.4560 H       4  T4          0.0646
   1546 1H5*       67.4350  -30.9960    9.4930 H       4  T4          0.0584
   1547 2H5*       66.3660  -29.7560    8.7840 H       4  T4          0.0584
   1548 1H5M       61.2930  -33.3270   12.6200 H       4  T4          0.0280
   1549 2H5M       63.0500  -32.9720   12.8520 H       4  T4          0.0280
   1550 3H5M       62.3700  -34.5470   13.3870 H       4  T4          0.0280
   1551  H5T       65.7070  -31.7800   10.6570 H       4  T4          0.2095
   1552  P         64.1450  -30.9110    4.7370 P.3     5  T5          0.2130
   1553  O1P       64.9950  -30.5780    3.5700 O.2     5  T5         -0.5172
   1554  O2P       63.4060  -29.7710    5.3090 O.co2   5  T5         -0.4373
   1555  C5*       63.8080  -33.2870    3.8370 C.3     5  T5          0.0836
   1556  O5*       63.1710  -32.0950    4.3750 O.3     5  T5         -0.3248
   1557  C4*       62.8050  -34.2760    3.2400 C.3     5  T5          0.1114
   1558  O4*       62.3020  -35.1500    4.2920 O.3     5  T5         -0.3483
   1559  C3*       61.5630  -33.6560    2.5560 C.3     5  T5          0.0983
   1560  O3*       61.3610  -34.1880    1.2580 O.3     5  T5         -0.3213
   1561  C2*       60.4270  -33.9680    3.5230 C.3     5  T5          0.0221
   1562  C1*       60.8950  -35.2450    4.2250 C.3     5  T5          0.1422
   1563  N1        60.4100  -35.3630    5.5990 N.ar    5  T5         -0.2737
   1564  C2        60.0150  -36.5820    6.0980 C.ar    5  T5          0.3313
   1565  O2        60.0660  -37.6200    5.4630 O.2     5  T5         -0.2464
   1566  N3        59.5380  -36.5390    7.3780 N.ar    5  T5         -0.2747
   1567  C4        59.4550  -35.4360    8.1970 C.ar    5  T5          0.2568
   1568  O4        58.9350  -35.5300    9.3000 O.2     5  T5         -0.2674
   1569  C5        59.9960  -34.2170    7.6410 C.ar    5  T5          0.0302
   1570  C5M       60.0830  -33.0070    8.5210 C.3     5  T5         -0.0332
   1571  C6        60.4930  -34.2580    6.4060 C.ar    5  T5          0.0199
   1572  H3        59.2010  -37.4260    7.7320 H       5  T5          0.1734
   1573  H6        61.1740  -33.4900    6.0130 H       5  T5          0.0816
   1574  H1*       60.6630  -36.1340    3.5870 H       5  T5          0.0840
   1575 1H2*       60.3650  -33.1060    4.2180 H       5  T5          0.0335
   1576 2H2*       59.4340  -34.1090    3.0690 H       5  T5          0.0335
   1577  H3*       61.7130  -32.5560    2.4790 H       5  T5          0.0628
   1578  H4*       63.3200  -34.9350    2.5080 H       5  T5          0.0646
   1579 1H5*       64.4010  -33.8140    4.6240 H       5  T5          0.0591
   1580 2H5*       64.5020  -33.0250    2.9990 H       5  T5          0.0591
   1581 1H5M       60.3170  -32.0840    7.9420 H       5  T5          0.0280
   1582 2H5M       60.8840  -33.1360    9.2780 H       5  T5          0.0280
   1583 3H5M       59.1280  -32.8420    9.0650 H       5  T5          0.0280
   1584  P         60.1000  -34.0230    0.3620 P.3     6  G6          0.2130
   1585  O1P       60.5000  -33.9190   -1.0460 O.2     6  G6         -0.5172
   1586  O2P       59.2170  -32.9300    0.8530 O.co2   6  G6         -0.4373
   1587  C5*       60.0980  -36.6180    0.5500 C.3     6  G6          0.0836
   1588  O5*       59.3330  -35.3790    0.5930 O.3     6  G6         -0.3248
   1589  C4*       59.2740  -37.8300    1.0030 C.3     6  G6          0.1114
   1590  O4*       58.9650  -37.7220    2.4270 O.3     6  G6         -0.3484
   1591  C3*       57.9180  -37.9280    0.2830 C.3     6  G6          0.0983
   1592  O3*       57.6250  -39.2570   -0.1600 O.3     6  G6         -0.3213
   1593  C2*       56.9280  -37.4660    1.3400 C.3     6  G6          0.0220
   1594  C1*       57.5780  -37.9630    2.6210 C.3     6  G6          0.1408
   1595  N1        55.1460  -38.2070    7.0650 N.ar    6  G6         -0.2934
   1596  C2        55.4220  -39.2030    6.1710 C.ar    6  G6          0.1950
   1597  N2        54.9620  -40.3940    6.4720 N.pl3   6  G6         -0.3289
   1598  N3        56.1040  -39.0220    5.0570 N.ar    6  G6         -0.1963
   1599  C4        56.4820  -37.7480    4.8860 C.ar    6  G6          0.1711
   1600  C5        56.2680  -36.6650    5.7240 C.ar    6  G6          0.1721
   1601  C6        55.5670  -36.8970    6.9360 C.ar    6  G6          0.2803
   1602  O6        55.3220  -36.0200    7.7900 O.2     6  G6         -0.2654
   1603  N7        56.7750  -35.4860    5.1620 N.ar    6  G6         -0.2286
   1604  C8        57.2940  -35.8930    4.0150 C.ar    6  G6          0.1004
   1605  N9        57.1460  -37.2400    3.8070 N.ar    6  G6         -0.2878
   1606  H1        54.6390  -38.4470    7.9000 H       6  G6          0.1716
   1607 1H2        55.1550  -41.1090    5.8060 H       6  G6          0.1451
   1608 2H2        54.3560  -40.5530    7.2510 H       6  G6          0.1451
   1609  H8        57.8070  -35.2780    3.2730 H       6  G6          0.1030
   1610  H1*       57.4410  -39.0650    2.7200 H       6  G6          0.0840
   1611 1H2*       56.8980  -36.3560    1.3240 H       6  G6          0.0335
   1612 2H2*       55.9060  -37.8630    1.2190 H       6  G6          0.0335
   1613  H3*       57.9510  -37.2160   -0.5790 H       6  G6          0.0628
   1614  H4*       59.8420  -38.7720    0.8410 H       6  G6          0.0646
   1615 1H5*       60.9970  -36.5850    1.2140 H       6  G6          0.0591
   1616 2H5*       60.4450  -36.8080   -0.4930 H       6  G6          0.0591
   1617  P         56.3450  -39.4770   -1.0580 P.3     7  T7          0.2130
   1618  O1P       56.6330  -40.5790   -2.0000 O.2     7  T7         -0.5172
   1619  O2P       55.9320  -38.1700   -1.6220 O.co2   7  T7         -0.4373
   1620  C5*       55.2290  -41.3420    0.3740 C.3     7  T7          0.0836
   1621  O5*       55.2650  -39.9400    0.0070 O.3     7  T7         -0.3248
   1622  C4*       54.0860  -41.6740    1.3450 C.3     7  T7          0.1114
   1623  O4*       54.2970  -41.0390    2.6400 O.3     7  T7         -0.3483
   1624  C3*       52.6970  -41.1910    0.9040 C.3     7  T7          0.0983
   1625  O3*       52.0970  -42.1400    0.0140 O.3     7  T7         -0.3213
   1626  C2*       51.9770  -41.1890    2.2360 C.3     7  T7          0.0221
   1627  C1*       53.0360  -40.7650    3.2450 C.3     7  T7          0.1422
   1628  N1        52.9760  -39.3480    3.6230 N.ar    7  T7         -0.2737
   1629  C2        52.3140  -39.0460    4.7830 C.ar    7  T7          0.3313
   1630  O2        51.7830  -39.8880    5.4980 O.2     7  T7         -0.2464
   1631  N3        52.3110  -37.7260    5.1110 N.ar    7  T7         -0.2747
   1632  C4        52.8650  -36.6920    4.4060 C.ar    7  T7          0.2568
   1633  O4        52.8800  -35.5660    4.9050 O.2     7  T7         -0.2674
   1634  C5        53.4380  -37.0530    3.1330 C.ar    7  T7          0.0302
   1635  C5M       53.9140  -35.9390    2.2530 C.3     7  T7         -0.0332
   1636  C6        53.4600  -38.3530    2.7960 C.ar    7  T7          0.0199
   1637  H3        51.8540  -37.5220    5.9920 H       7  T7          0.1734
   1638  H6        53.9260  -38.7220    1.8720 H       7  T7          0.0816
   1639  H1*       52.9690  -41.4370    4.1350 H       7  T7          0.0840
   1640 1H2*       51.1100  -40.5100    2.2270 H       7  T7          0.0335
   1641 2H2*       51.6310  -42.2050    2.5070 H       7  T7          0.0335
   1642  H3*       52.7980  -40.1700    0.4670 H       7  T7          0.0628
   1643  H4*       54.0270  -42.7670    1.5260 H       7  T7          0.0646
   1644 1H5*       56.1910  -41.6490    0.8430 H       7  T7          0.0591
   1645 2H5*       55.0650  -41.9750   -0.5320 H       7  T7          0.0591
   1646 1H5M       54.4100  -36.3200    1.3340 H       7  T7          0.0280
   1647 2H5M       54.6340  -35.2840    2.7940 H       7  T7          0.0280
   1648 3H5M       53.0600  -35.3090    1.9250 H       7  T7          0.0280
   1649  P         50.7360  -41.7600   -0.7070 P.3     8  G8          0.2130
   1650  O1P       50.6330  -42.5460   -1.9540 O.2     8  G8         -0.5172
   1651  O2P       50.5880  -40.2930   -0.7990 O.co2   8  G8         -0.4373
   1652  C5*       49.6540  -43.4820    1.0330 C.3     8  G8          0.0836
   1653  O5*       49.6190  -42.2650    0.2720 O.3     8  G8         -0.3248
   1654  C4*       48.6930  -43.4150    2.2350 C.3     8  G8          0.1114
   1655  O4*       48.9690  -42.2670    3.1030 O.3     8  G8         -0.3484
   1656  C3*       47.2410  -43.2430    1.7650 C.3     8  G8          0.0983
   1657  O3*       46.3380  -44.0430    2.5270 O.3     8  G8         -0.3213
   1658  C2*       46.9880  -41.7540    1.9220 C.3     8  G8          0.0220
   1659  C1*       47.8320  -41.3930    3.1370 C.3     8  G8          0.1408
   1660  N1        48.2260  -36.9810    5.6500 N.ar    8  G8         -0.2934
   1661  C2        47.6330  -38.1430    6.0590 C.ar    8  G8          0.1950
   1662  N2        47.0830  -38.1180    7.2360 N.pl3   8  G8         -0.3289
   1663  N3        47.5760  -39.2360    5.3170 N.ar    8  G8         -0.1963
   1664  C4        48.1810  -39.0780    4.1190 C.ar    8  G8          0.1711
   1665  C5        48.7790  -37.9440    3.6180 C.ar    8  G8          0.1721
   1666  C6        48.8360  -36.7810    4.4230 C.ar    8  G8          0.2803
   1667  O6        49.3490  -35.7030    4.1130 O.2     8  G8         -0.2654
   1668  N7        49.2480  -38.1580    2.3310 N.ar    8  G8         -0.2286
   1669  C8        48.9420  -39.4030    2.0770 C.ar    8  G8          0.1004
   1670  N9        48.3050  -40.0200    3.1310 N.ar    8  G8         -0.2878
   1671  H1        48.2390  -36.2070    6.2940 H       8  G8          0.1716
   1672 1H2        47.1170  -37.3080    7.8350 H       8  G8          0.1451
   1673 2H2        46.5310  -38.9030    7.4910 H       8  G8          0.1451
   1674  H8        49.1950  -39.9420    1.1550 H       8  G8          0.1030
   1675  H1*       47.2700  -41.6310    4.0710 H       8  G8          0.0840
   1676 1H2*       47.3770  -41.2490    1.0110 H       8  G8          0.0335
   1677 2H2*       45.9360  -41.4550    2.0330 H       8  G8          0.0335
   1678  H3*       47.1930  -43.5230    0.6850 H       8  G8          0.0628
   1679  H4*       48.7690  -44.3360    2.8500 H       8  G8          0.0646
   1680 1H5*       50.6750  -43.7120    1.4070 H       8  G8          0.0591
   1681 2H5*       49.3360  -44.3280    0.3830 H       8  G8          0.0591
   1682  P         44.7880  -43.9830    2.2630 P.3     9  A9          0.2130
   1683  O1P       44.2300  -45.3260    2.5140 O.3     9  A9         -0.4373
   1684  O2P       44.5260  -43.3620    0.9470 O.co2   9  A9         -0.5172
   1685  C5*       44.6330  -43.3260    4.7780 C.3     9  A9          0.0836
   1686  O5*       44.2990  -42.9920    3.4050 O.3     9  A9         -0.3248
   1687  C4*       43.9420  -42.4170    5.8140 C.3     9  A9          0.1114
   1688  O4*       44.4820  -41.0580    5.7710 O.3     9  A9         -0.3484
   1689  C3*       42.4340  -42.2740    5.5830 C.3     9  A9          0.0983
   1690  O3*       41.7010  -42.2830    6.8130 O.3     9  A9         -0.3213
   1691  C2*       42.3000  -40.9470    4.8540 C.3     9  A9          0.0220
   1692  C1*       43.4620  -40.1200    5.4120 C.3     9  A9          0.1408
   1693  N1        45.3040  -35.3770    4.4750 N.ar    9  A9         -0.2188
   1694  C2        44.6540  -35.8760    5.5300 C.ar    9  A9          0.1205
   1695  N3        44.1970  -37.1130    5.7190 N.ar    9  A9         -0.2159
   1696  C4        44.4040  -37.8850    4.6340 C.ar    9  A9          0.1673
   1697  C5        45.0210  -37.5040    3.4550 C.ar    9  A9          0.1473
   1698  C6        45.5210  -36.1840    3.4100 C.ar    9  A9          0.1472
   1699  N6        46.2490  -35.6930    2.3930 N.pl3   9  A9         -0.3413
   1700  N7        45.0760  -38.5590    2.5530 N.ar    9  A9         -0.2306
   1701  C8        44.4960  -39.5430    3.1980 C.ar    9  A9          0.1003
   1702  N9        44.0700  -39.2070    4.4570 N.ar    9  A9         -0.2879
   1703  H2        44.5170  -35.1870    6.3720 H       9  A9          0.1048
   1704 1H6        46.5330  -34.7350    2.3970 H       9  A9          0.1438
   1705 2H6        46.5240  -36.2860    1.6370 H       9  A9          0.1438
   1706  H8        44.3530  -40.5570    2.8100 H       9  A9          0.1030
   1707  H1*       43.1440  -39.6040    6.3470 H       9  A9          0.0840
   1708 1H2*       42.4320  -41.1390    3.7690 H       9  A9          0.0335
   1709 2H2*       41.3310  -40.4420    5.0120 H       9  A9          0.0335
   1710  H3*       42.1330  -43.1160    4.9140 H       9  A9          0.0628
   1711  H4*       44.1040  -42.8220    6.8340 H       9  A9          0.0646
   1712 1H5*       45.7330  -43.2600    4.9420 H       9  A9          0.0591
   1713 2H5*       44.3140  -44.3710    5.0090 H       9  A9          0.0591
   1714  P         40.1600  -42.6280    6.8010 P.3    10  G10         0.2130
   1715  O1P       39.7590  -43.0460    8.1630 O.3    10  G10        -0.4373
   1716  O2P       39.8770  -43.5510    5.6810 O.co2  10  G10        -0.5172
   1717  C5*       39.6310  -40.1570    7.4710 C.3    10  G10         0.0836
   1718  O5*       39.5170  -41.2150    6.4870 O.3    10  G10        -0.3248
   1719  C4*       39.1500  -38.7970    6.9310 C.3    10  G10         0.1114
   1720  O4*       40.1650  -38.2420    6.0330 O.3    10  G10        -0.3484
   1721  C3*       37.8580  -38.8400    6.0670 C.3    10  G10         0.0983
   1722  O3*       36.8160  -37.9970    6.5830 O.3    10  G10        -0.3213
   1723  C2*       38.3260  -38.3380    4.6980 C.3    10  G10         0.0220
   1724  C1*       39.4930  -37.4390    5.0830 C.3    10  G10         0.1408
   1725  N1        42.3040  -33.9660    2.5960 N.ar   10  G10        -0.2934
   1726  C2        41.5290  -33.8100    3.7160 C.ar   10  G10         0.1950
   1727  N2        41.4920  -32.6030    4.2150 N.pl3  10  G10        -0.3289
   1728  N3        40.8390  -34.7850    4.2730 N.ar   10  G10        -0.1963
   1729  C4        40.9990  -35.9600    3.6460 C.ar   10  G10         0.1711
   1730  C5        41.7540  -36.2230    2.5070 C.ar   10  G10         0.1721
   1731  C6        42.4760  -35.1500    1.9240 C.ar   10  G10         0.2803
   1732  O6        43.2140  -35.1790    0.9100 O.2    10  G10        -0.2654
   1733  N7        41.6410  -37.5650    2.1550 N.ar   10  G10        -0.2286
   1734  C8        40.8570  -38.0820    3.0670 C.ar   10  G10         0.1004
   1735  N9        40.4180  -37.1570    3.9820 N.ar   10  G10        -0.2878
   1736  H1        42.7960  -33.1730    2.2370 H      10  G10         0.1716
   1737 1H2        41.9800  -31.8320    3.8020 H      10  G10         0.1451
   1738 2H2        40.9230  -32.4850    5.0240 H      10  G10         0.1451
   1739  H8        40.5700  -39.1330    3.1370 H      10  G10         0.1030
   1740  H1*       39.1400  -36.5140    5.6000 H      10  G10         0.0840
   1741 1H2*       38.6580  -39.2210    4.1090 H      10  G10         0.0335
   1742 2H2*       37.5410  -37.7940    4.1420 H      10  G10         0.0335
   1743  H3*       37.5220  -39.9010    6.0000 H      10  G10         0.0628
   1744  H4*       39.0030  -38.0750    7.7620 H      10  G10         0.0646
   1745 1H5*       40.6830  -40.0360    7.8270 H      10  G10         0.0591
   1746 2H5*       39.0020  -40.4130    8.3550 H      10  G10         0.0591
   1747  P         35.3440  -38.1950    6.0200 P.3    11  C11         0.2130
   1748  O1P       34.4490  -38.5700    7.1360 O.3    11  C11        -0.4373
   1749  O2P       35.3950  -39.0740    4.8300 O.co2  11  C11        -0.5172
   1750  C5*       34.5550  -35.7430    6.5020 C.3    11  C11         0.0836
   1751  O5*       34.9860  -36.7350    5.5330 O.3    11  C11        -0.3248
   1752  C4*       34.7680  -34.3070    5.9980 C.3    11  C11         0.1114
   1753  O4*       36.1940  -34.0530    5.7740 O.3    11  C11        -0.3483
   1754  C3*       34.1460  -34.0070    4.6200 C.3    11  C11         0.0983
   1755  O3*       32.7460  -33.7860    4.6340 O.3    11  C11        -0.3213
   1756  C2*       34.9240  -32.7590    4.2460 C.3    11  C11         0.0221
   1757  C1*       36.3550  -33.1390    4.6770 C.3    11  C11         0.1423
   1758  N1        37.1630  -33.7760    3.5990 N.ar   11  C11        -0.2725
   1759  C2        38.0680  -33.0360    2.8350 C.ar   11  C11         0.3521
   1760  O2        38.2700  -31.8400    3.0950 O.2    11  C11        -0.2444
   1761  N3        38.7220  -33.6170    1.8050 N.ar   11  C11        -0.1783
   1762  C4        38.5000  -34.9040    1.5210 C.ar   11  C11         0.1230
   1763  N4        39.1640  -35.4350    0.5020 N.pl3  11  C11        -0.3430
   1764  C5        37.5960  -35.6960    2.2770 C.ar   11  C11        -0.0056
   1765  C6        36.9460  -35.0990    3.2840 C.ar   11  C11         0.0151
   1766 1H4        39.7620  -34.8260   -0.0250 H      11  C11         0.1437
   1767 2H4        38.9890  -36.3560    0.1750 H      11  C11         0.1437
   1768  H5        37.4500  -36.7440    2.0250 H      11  C11         0.0666
   1769  H6        36.2630  -35.6430    3.9440 H      11  C11         0.0812
   1770  H1*       36.8680  -32.2380    5.0850 H      11  C11         0.0840
   1771 1H2*       34.8530  -32.5250    3.1670 H      11  C11         0.0335
   1772 2H2*       34.5950  -31.8810    4.8430 H      11  C11         0.0335
   1773  H3*       34.3840  -34.8500    3.9380 H      11  C11         0.0628
   1774  H4*       34.4060  -33.5620    6.7390 H      11  C11         0.0646
   1775 1H5*       35.1050  -35.8360    7.4700 H      11  C11         0.0591
   1776 2H5*       33.4680  -35.8800    6.7120 H      11  C11         0.0591
   1777  P         31.8030  -32.9670    5.5670 P.3    12  G12         0.2130
   1778  O1P       32.5150  -31.8910    6.2860 O.2    12  G12        -0.5172
   1779  O2P       30.9940  -33.9140    6.3650 O.co2  12  G12        -0.4373
   1780  C5*       30.9320  -30.9490    4.1340 C.3    12  G12         0.0836
   1781  O5*       30.8560  -32.3480    4.4740 O.3    12  G12        -0.3248
   1782  C4*       30.4680  -30.6930    2.6930 C.3    12  G12         0.1114
   1783  O4*       31.5750  -30.9180    1.7740 O.3    12  G12        -0.3484
   1784  C3*       29.3210  -31.6030    2.2080 C.3    12  G12         0.0983
   1785  O3*       28.3520  -30.8820    1.4420 O.3    12  G12        -0.3213
   1786  C2*       30.0320  -32.6670    1.3800 C.3    12  G12         0.0220
   1787  C1*       31.2410  -31.9150    0.8120 C.3    12  G12         0.1408
   1788  N1        35.3520  -32.7690   -2.0720 N.ar   12  G12        -0.2934
   1789  C2        34.3560  -31.8510   -2.2370 C.ar   12  G12         0.1950
   1790  N2        34.4680  -31.0140   -3.2300 N.pl3  12  G12        -0.3289
   1791  N3        33.3000  -31.7630   -1.4570 N.ar   12  G12        -0.1963
   1792  C4        33.3400  -32.6450   -0.4400 C.ar   12  G12         0.1711
   1793  C5        34.2810  -33.6190   -0.1930 C.ar   12  G12         0.1721
   1794  C6        35.4150  -33.7160   -1.0590 C.ar   12  G12         0.2803
   1795  O6        36.3520  -34.5050   -0.9840 O.2    12  G12        -0.2654
   1796  N7        33.9720  -34.3260    0.9680 N.ar   12  G12        -0.2286
   1797  C8        32.8800  -33.7430    1.4100 C.ar   12  G12         0.1004
   1798  N9        32.4320  -32.7360    0.5880 N.ar   12  G12        -0.2878
   1799  H1        36.1400  -32.7500   -2.7020 H      12  G12         0.1716
   1800 1H2        35.2690  -31.0070   -3.8430 H      12  G12         0.1451
   1801 2H2        33.7330  -30.3570   -3.3400 H      12  G12         0.1451
   1802  H8        32.3600  -33.9870    2.3410 H      12  G12         0.1030
   1803  H1*       30.9400  -31.3660   -0.1090 H      12  G12         0.0840
   1804 1H2*       30.3570  -33.4650    2.0770 H      12  G12         0.0335
   1805 2H2*       29.4230  -33.1200    0.5790 H      12  G12         0.0335
   1806  H3*       28.8470  -32.0570    3.1140 H      12  G12         0.0628
   1807  H4*       30.1700  -29.6330    2.5730 H      12  G12         0.0646
   1808 1H5*       31.9620  -30.5310    4.2560 H      12  G12         0.0591
   1809 2H5*       30.2590  -30.3930    4.8230 H      12  G12         0.0591
   1810  P         27.0460  -31.6060    0.9500 P.3    13  C13         0.2130
   1811  O1P       25.9560  -30.6110    0.9740 O.2    13  C13        -0.5172
   1812  O2P       26.8430  -32.8860    1.6670 O.co2  13  C13        -0.4373
   1813  C5*       27.7250  -30.8800   -1.4800 C.3    13  C13         0.0836
   1814  O5*       27.3320  -31.9290   -0.5580 O.3    13  C13        -0.3248
   1815  C4*       28.6120  -31.3950   -2.6290 C.3    13  C13         0.1114
   1816  O4*       29.6380  -32.2870   -2.1400 O.3    13  C13        -0.3483
   1817  C3*       27.8870  -32.2880   -3.6530 C.3    13  C13         0.0983
   1818  O3*       27.3880  -31.5010   -4.7390 O.3    13  C13        -0.3213
   1819  C2*       28.9880  -33.2860   -4.0790 C.3    13  C13         0.0221
   1820  C1*       30.2260  -32.8310   -3.3010 C.3    13  C13         0.1423
   1821  N1        31.1400  -33.9310   -2.9400 N.ar   13  C13        -0.2725
   1822  C2        32.2410  -34.2080   -3.7410 C.ar   13  C13         0.3521
   1823  O2        32.4620  -33.5060   -4.7400 O.2    13  C13        -0.2444
   1824  N3        33.0570  -35.2310   -3.4240 N.ar   13  C13        -0.1783
   1825  C4        32.7580  -36.0400   -2.4020 C.ar   13  C13         0.1230
   1826  N4        33.5420  -37.0830   -2.1710 N.pl3  13  C13        -0.3430
   1827  C5        31.6150  -35.8080   -1.5830 C.ar   13  C13        -0.0056
   1828  C6        30.8320  -34.7640   -1.8910 C.ar   13  C13         0.0151
   1829 1H4        34.3950  -37.1640   -2.6950 H      13  C13         0.1437
   1830 2H4        33.3060  -37.7660   -1.4830 H      13  C13         0.1437
   1831  H5        31.3990  -36.4890   -0.7670 H      13  C13         0.0666
   1832  H6        29.9550  -34.4690   -1.3030 H      13  C13         0.0812
   1833  H1*       30.7350  -31.9950   -3.8380 H      13  C13         0.0840
   1834 1H2*       28.6690  -34.3050   -3.7860 H      13  C13         0.0335
   1835 2H2*       29.2170  -33.2660   -5.1580 H      13  C13         0.0335
   1836  H3*       27.0620  -32.8070   -3.1110 H      13  C13         0.0628
   1837  H4*       29.1000  -30.5540   -3.1660 H      13  C13         0.0646
   1838 1H5*       28.3020  -30.0690   -0.9720 H      13  C13         0.0591
   1839 2H5*       26.8160  -30.4180   -1.9280 H      13  C13         0.0591
   1840  P         26.6860  -32.1810   -5.9660 P.3    14  T14         0.2130
   1841  O1P       25.6530  -31.2650   -6.4980 O.2    14  T14        -0.5172
   1842  O2P       26.2590  -33.5670   -5.6870 O.co2  14  T14        -0.4373
   1843  C5*       28.8440  -31.2150   -7.1530 C.3    14  T14         0.0836
   1844  O5*       27.8180  -32.2270   -7.0440 O.3    14  T14        -0.3248
   1845  C4*       29.7360  -31.4510   -8.3820 C.3    14  T14         0.1112
   1846  O4*       30.7410  -32.4410   -8.0520 O.3    14  T14        -0.3504
   1847  C3*       28.9930  -32.0030   -9.6090 C.3    14  T14         0.0981
   1848  O3*       29.4350  -31.3950  -10.8230 O.3    14  T14        -0.3213
   1849  C2*       29.2660  -33.4940   -9.5790 C.3    14  T14         0.0197
   1850  C1*       30.6100  -33.6000   -8.8610 C.3    14  T14         0.1317
   1851  N1        30.7480  -34.7350   -7.9500 N.am   14  T14        -0.2534
   1852  C2        31.9130  -35.3960   -7.8310 C.2    14  T14         0.3107
   1853  O2        32.9560  -35.0740   -8.5480 O.2    14  T14        -0.2521
   1854  N3        31.9820  -36.4010   -6.9700 N.am   14  T14        -0.2394
   1855  C4        30.9690  -36.8380   -6.1240 C.2    14  T14         0.2292
   1856  O4        31.1640  -37.7840   -5.3890 O.2    14  T14        -0.2747
   1857  C5        29.7450  -36.0740   -6.2390 C.3    14  T14         0.0803
   1858  C5M       28.5440  -36.5490   -5.4670 C.3    14  T14        -0.0484
   1859  C6        29.6870  -35.0840   -7.1160 C.3    14  T14         0.0642
   1860  H3        32.8470  -36.9260   -6.9500 H      14  T14         0.1591
   1861  H6        28.8520  -34.3720   -7.1300 H      14  T14         0.0531
   1862  H1*       31.4260  -33.5420   -9.6270 H      14  T14         0.0811
   1863 1H2*       28.4390  -33.9920   -9.0360 H      14  T14         0.0333
   1864 2H2*       29.3220  -33.9270  -10.5880 H      14  T14         0.0333
   1865  H3*       27.9040  -31.8380   -9.4550 H      14  T14         0.0628
   1866  H4*       30.2750  -30.5220   -8.6660 H      14  T14         0.0646
   1867 1H5*       29.4990  -31.2030   -6.2480 H      14  T14         0.0591
   1868 2H5*       28.3890  -30.2050   -7.2550 H      14  T14         0.0591
   1869 1H5M       28.0350  -37.3790   -6.0020 H      14  T14         0.0241
   1870 2H5M       27.8040  -35.7270   -5.3230 H      14  T14         0.0241
   1871 3H5M       28.8470  -36.9250   -4.4660 H      14  T14         0.0241
   1872  P         28.6300  -31.6470  -12.1580 P.3    15  C15         0.2130
   1873  O1P       28.6750  -30.3910  -12.9360 O.2    15  C15        -0.5172
   1874  O2P       27.2870  -32.1600  -11.7970 O.co2  15  C15        -0.4373
   1875  C5*       30.7890  -32.4050  -13.3940 C.3    15  C15         0.0836
   1876  O5*       29.4780  -32.7880  -12.8860 O.3    15  C15        -0.3248
   1877  C4*       31.7060  -33.5890  -13.7810 C.3    15  C15         0.1114
   1878  O4*       31.9520  -34.4590  -12.6350 O.3    15  C15        -0.3483
   1879  C3*       31.1640  -34.5060  -14.9010 C.3    15  C15         0.0983
   1880  O3*       32.1430  -34.7870  -15.9050 O.3    15  C15        -0.3213
   1881  C2*       30.7460  -35.7620  -14.1520 C.3    15  C15         0.0221
   1882  C1*       31.7750  -35.8190  -13.0240 C.3    15  C15         0.1423
   1883  N1        31.3220  -36.5670  -11.8500 N.ar   15  C15        -0.2725
   1884  C2        32.0790  -37.5790  -11.2610 C.ar   15  C15         0.3521
   1885  O2        33.1850  -37.8860  -11.7120 O.2    15  C15        -0.2444
   1886  N3        31.5750  -38.2400  -10.1990 N.ar   15  C15        -0.1783
   1887  C4        30.3800  -37.9160   -9.7100 C.ar   15  C15         0.1230
   1888  N4        29.9220  -38.6130   -8.6870 N.pl3  15  C15        -0.3430
   1889  C5        29.5860  -36.8870  -10.2830 C.ar   15  C15        -0.0056
   1890  C6        30.0950  -36.2420  -11.3430 C.ar   15  C15         0.0151
   1891 1H4        30.5200  -39.3340   -8.3110 H      15  C15         0.1437
   1892 2H4        29.0100  -38.4580   -8.3000 H      15  C15         0.1437
   1893  H5        28.6270  -36.6260   -9.8470 H      15  C15         0.0666
   1894  H6        29.6040  -35.3930  -11.8290 H      15  C15         0.0812
   1895  H1*       32.7570  -36.1740  -13.4250 H      15  C15         0.0840
   1896 1H2*       29.7190  -35.5770  -13.7760 H      15  C15         0.0335
   1897 2H2*       30.7320  -36.6890  -14.7500 H      15  C15         0.0335
   1898  H3*       30.2760  -34.0030  -15.3500 H      15  C15         0.0628
   1899  H4*       32.6930  -33.1970  -14.1110 H      15  C15         0.0646
   1900 1H5*       31.3560  -31.8040  -12.6400 H      15  C15         0.0591
   1901 2H5*       30.6610  -31.7740  -14.3050 H      15  C15         0.0591
   1902  P         31.7740  -35.7120  -17.1340 P.3    16  A16         0.2130
   1903  O1P       32.4390  -35.1540  -18.3300 O.2    16  A16        -0.5172
   1904  O2P       30.3060  -35.8920  -17.1930 O.co2  16  A16        -0.4373
   1905  C5*       33.8880  -37.2160  -17.0830 C.3    16  A16         0.0836
   1906  O5*       32.4780  -37.0940  -16.7320 O.3    16  A16        -0.3248
   1907  C4*       34.5510  -38.5300  -16.6190 C.3    16  A16         0.1114
   1908  O4*       34.4700  -38.6900  -15.1680 O.3    16  A16        -0.3484
   1909  C3*       33.9430  -39.8170  -17.1980 C.3    16  A16         0.0983
   1910  O3*       34.5580  -40.1270  -18.4560 O.3    16  A16        -0.3213
   1911  C2*       34.3640  -40.8300  -16.1510 C.3    16  A16         0.0220
   1912  C1*       34.2660  -40.0630  -14.8370 C.3    16  A16         0.1408
   1913  N1        31.7600  -42.7120  -11.2660 N.ar   16  A16        -0.2188
   1914  C2        32.9610  -42.8720  -11.8340 C.ar   16  A16         0.1205
   1915  N3        33.5380  -42.1250  -12.7790 N.ar   16  A16        -0.2159
   1916  C4        32.7250  -41.1410  -13.1940 C.ar   16  A16         0.1673
   1917  C5        31.4410  -40.8880  -12.7620 C.ar   16  A16         0.1473
   1918  C6        30.9690  -41.7100  -11.7110 C.ar   16  A16         0.1472
   1919  N6        29.7960  -41.5380  -11.0880 N.pl3  16  A16        -0.3413
   1920  N7        30.8760  -39.8160  -13.4610 N.ar   16  A16        -0.2306
   1921  C8        31.8520  -39.4320  -14.2640 C.ar   16  A16         0.1003
   1922  N9        32.9930  -40.1930  -14.1430 N.ar   16  A16        -0.2879
   1923  H2        33.5750  -43.6950  -11.4450 H      16  A16         0.1048
   1924 1H6        29.4480  -40.6140  -10.9930 H      16  A16         0.1438
   1925 2H6        29.6050  -42.1830  -10.3420 H      16  A16         0.1438
   1926  H8        31.8150  -38.5900  -14.9650 H      16  A16         0.1030
   1927  H1*       35.1000  -40.3790  -14.1670 H      16  A16         0.0840
   1928 1H2*       33.7430  -41.7430  -16.1700 H      16  A16         0.0335
   1929 2H2*       35.4230  -41.1250  -16.3220 H      16  A16         0.0335
   1930  H3*       32.8390  -39.6640  -17.2540 H      16  A16         0.0628
   1931  H4*       35.6280  -38.5240  -16.8890 H      16  A16         0.0646
   1932 1H5*       34.4760  -36.3740  -16.6430 H      16  A16         0.0591
   1933 2H5*       34.0110  -37.1770  -18.1940 H      16  A16         0.0591
   1934  P         33.7980  -41.0930  -19.4560 P.3    17  C17         0.2130
   1935  O1P       34.6100  -41.2450  -20.6830 O.2    17  C17        -0.5172
   1936  O2P       32.4030  -40.6250  -19.5830 O.co2  17  C17        -0.4373
   1937  C5*       34.8650  -43.3830  -18.6460 C.3    17  C17         0.0836
   1938  O5*       33.7430  -42.4750  -18.6840 O.3    17  C17        -0.3248
   1939  C4*       34.5960  -44.6300  -17.7710 C.3    17  C17         0.1114
   1940  O4*       34.2590  -44.2410  -16.4010 O.3    17  C17        -0.3483
   1941  C3*       33.4190  -45.5170  -18.2250 C.3    17  C17         0.0983
   1942  O3*       33.8720  -46.4850  -19.1800 O.3    17  C17        -0.3213
   1943  C2*       33.0190  -46.1920  -16.9250 C.3    17  C17         0.0221
   1944  C1*       33.2450  -45.1100  -15.8790 C.3    17  C17         0.1423
   1945  N1        32.0340  -44.3490  -15.5300 N.ar   17  C17        -0.2725
   1946  C2        31.2480  -44.7710  -14.4560 C.ar   17  C17         0.3521
   1947  O2        31.5840  -45.7690  -13.7960 O.2    17  C17        -0.2444
   1948  N3        30.1410  -44.0810  -14.1290 N.ar   17  C17        -0.1783
   1949  C4        29.7620  -43.0350  -14.8720 C.ar   17  C17         0.1230
   1950  N4        28.7250  -42.3370  -14.4490 N.pl3  17  C17        -0.3430
   1951  C5        30.4810  -42.6380  -16.0300 C.ar   17  C17        -0.0056
   1952  C6        31.5810  -43.3370  -16.3440 C.ar   17  C17         0.0151
   1953 1H4        28.3370  -42.6990  -13.6010 H      17  C17         0.1437
   1954 2H4        28.6950  -41.3620  -14.6490 H      17  C17         0.1437
   1955  H5        30.1460  -41.7890  -16.6180 H      17  C17         0.0666
   1956  H6        32.2020  -43.1030  -17.2090 H      17  C17         0.0812
   1957  H1*       33.6840  -45.5880  -14.9720 H      17  C17         0.0840
   1958 1H2*       31.9750  -46.5520  -16.9560 H      17  C17         0.0335
   1959 2H2*       33.6890  -47.0490  -16.6980 H      17  C17         0.0335
   1960  H3*       32.6230  -44.8430  -18.6240 H      17  C17         0.0628
   1961  H4*       35.5020  -45.2710  -17.7250 H      17  C17         0.0646
   1962 1H5*       35.7650  -42.8630  -18.2390 H      17  C17         0.0591
   1963 2H5*       35.1010  -43.7380  -19.6780 H      17  C17         0.0591
   1964  P         32.7820  -47.3830  -19.9010 P.3    18  A18         0.2130
   1965  O1P       33.3250  -47.8380  -21.1970 O.2    18  A18        -0.5172
   1966  O2P       31.4710  -46.6990  -19.8890 O.co2  18  A18        -0.4373
   1967  C5*       33.6870  -49.3250  -18.2930 C.3    18  A18         0.0836
   1968  O5*       32.6280  -48.6320  -18.9680 O.3    18  A18        -0.3248
   1969  C4*       33.1370  -50.2210  -17.1620 C.3    18  A18         0.1114
   1970  O4*       32.2540  -49.4830  -16.2340 O.3    18  A18        -0.3484
   1971  C3*       32.2770  -51.3560  -17.7370 C.3    18  A18         0.0983
   1972  O3*       32.4900  -52.5870  -17.0480 O.3    18  A18        -0.3213
   1973  C2*       30.8600  -50.8330  -17.5750 C.3    18  A18         0.0220
   1974  C1*       30.9230  -50.0270  -16.2800 C.3    18  A18         0.1408
   1975  N1        27.0100  -47.7440  -13.7470 N.ar   18  A18        -0.2188
   1976  C2        27.7400  -48.8270  -13.4520 C.ar   18  A18         0.1205
   1977  N3        28.7480  -49.3720  -14.1420 N.ar   18  A18        -0.2159
   1978  C4        29.0160  -48.6720  -15.2650 C.ar   18  A18         0.1673
   1979  C5        28.3520  -47.5420  -15.6970 C.ar   18  A18         0.1473
   1980  C6        27.2980  -47.0730  -14.8870 C.ar   18  A18         0.1472
   1981  N6        26.5600  -46.0030  -15.2200 N.pl3  18  A18        -0.3413
   1982  N7        28.8580  -47.0960  -16.9100 N.ar   18  A18        -0.2306
   1983  C8        29.8180  -47.9480  -17.1860 C.ar   18  A18         0.1003
   1984  N9        29.9680  -48.9280  -16.2310 N.ar   18  A18        -0.2879
   1985  H2        27.4710  -49.3460  -12.5230 H      18  A18         0.1048
   1986 1H6        25.7120  -45.8210  -14.7180 H      18  A18         0.1438
   1987 2H6        26.6620  -45.6240  -16.1360 H      18  A18         0.1438
   1988  H8        30.4650  -47.9040  -18.0710 H      18  A18         0.1030
   1989  H1*       30.8170  -50.7150  -15.4080 H      18  A18         0.0840
   1990 1H2*       30.6530  -50.1630  -18.4380 H      18  A18         0.0335
   1991 2H2*       30.0900  -51.6140  -17.5740 H      18  A18         0.0335
   1992  H3*       32.5230  -51.4640  -18.8220 H      18  A18         0.0628
   1993  H4*       33.9780  -50.6730  -16.5940 H      18  A18         0.0646
   1994 1H5*       34.4300  -48.6210  -17.8590 H      18  A18         0.0591
   1995 2H5*       34.2270  -49.9670  -19.0260 H      18  A18         0.0591
   1996  P         31.8350  -53.9320  -17.5320 P.3    19  A19         0.2130
   1997  O1P       32.9080  -54.9170  -17.7730 O.3    19  A19        -0.4373
   1998  O2P       30.8690  -53.6710  -18.6180 O.co2  19  A19        -0.5172
   1999  C5*       31.5880  -54.2970  -14.9340 C.3    19  A19         0.0835
   2000  O5*       31.0070  -54.3860  -16.2560 O.3    19  A19        -0.3248
   2001  C4*       30.5710  -54.6590  -13.8360 C.3    19  A19         0.1107
   2002  O4*       29.6080  -53.5700  -13.6710 O.3    19  A19        -0.3484
   2003  C3*       29.7280  -55.9060  -14.1570 C.3    19  A19         0.0877
   2004  O3*       29.4710  -56.7650  -13.0450 O.3    19  A19        -0.3890
   2005  C2*       28.4300  -55.3550  -14.7100 C.3    19  A19         0.0213
   2006  C1*       28.2880  -53.9880  -14.0230 C.3    19  A19         0.1408
   2007  N1        24.5880  -50.4310  -14.7200 N.ar   19  A19        -0.2188
   2008  C2        24.8010  -51.3020  -13.7290 C.ar   19  A19         0.1205
   2009  N3        25.7630  -52.2270  -13.6150 N.ar   19  A19        -0.2159
   2010  C4        26.6150  -52.1750  -14.6570 C.ar   19  A19         0.1673
   2011  C5        26.5190  -51.3450  -15.7550 C.ar   19  A19         0.1473
   2012  C6        25.4460  -50.4290  -15.7660 C.ar   19  A19         0.1472
   2013  N6        25.2610  -49.5460  -16.7610 N.pl3  19  A19        -0.3413
   2014  N7        27.5300  -51.6030  -16.6690 N.ar   19  A19        -0.2306
   2015  C8        28.2310  -52.5550  -16.0950 C.ar   19  A19         0.1003
   2016  N9        27.7260  -52.9520  -14.8810 N.ar   19  A19        -0.2879
   2017  H2        24.0700  -51.2720  -12.9120 H      19  A19         0.1048
   2018 1H6        24.5900  -48.8030  -16.6630 H      19  A19         0.1438
   2019 2H6        25.8570  -49.5560  -17.5550 H      19  A19         0.1438
   2020  H8        29.1310  -53.0190  -16.5080 H      19  A19         0.1030
   2021  H1*       27.7310  -54.0920  -13.0620 H      19  A19         0.0840
   2022 1H2*       28.5430  -55.2400  -15.8100 H      19  A19         0.0335
   2023 2H2*       27.5570  -56.0010  -14.4960 H      19  A19         0.0335
   2024  H3*       30.2790  -56.4760  -14.9420 H      19  A19         0.0621
   2025  H4*       31.0900  -54.8100  -12.8670 H      19  A19         0.0646
   2026 1H5*       31.9650  -53.2680  -14.7190 H      19  A19         0.0591
   2027 2H5*       32.4540  -54.9970  -14.8590 H      19  A19         0.0591
   2028  H3T       28.7790  -57.3880  -13.2750 H      19  A19         0.2099
@<TRIPOS>BOND
     1  1965  1964    2
     2  1935  1934    2
     3  1964  1966    1
     4  1964  1942    1
     5  1964  1968    1
     6   414   413    2
     7  1963  1937    1
     8  1936  1934    1
     9  1934  1938    1
    10  1934  1910    1
    11  1942  1941    1
    12  1995  1967    1
    13  1968  1967    1
    14  1992  1971    1
    15  1938  1937    1
    16  1937  1962    1
    17  1937  1939    1
    18  1960  1941    1
    19  1998  1996    2
    20   415   413    1
    21  1910  1909    1
    22   413   417    1
    23   413   389    1
    24  1990  1973    1
    25  1903  1902    2
    26  1967  1994    1
    27  1967  1969    1
    28  1941  1939    1
    29  1941  1943    1
    30  1933  1905    1
    31   536   523    1
    32  1988  1983    1
    33   477   475    2
    34   442   416    1
    35  1997  1996    1
    36  1939  1961    1
    37  1939  1940    1
    38   439   420    1
    39  1971  1973    1
    40  1971  1969    1
    41  1971  1972    1
    42   412   384    1
    43  1041  1030    1
    44   417   416    1
    45   382   381    2
    46   534   523    1
    47  1973  1991    1
    48  1973  1974    1
    49  2019  2013    1
    50   389   388    1
    51   498   492    1
    52  1996  1972    1
    53  1996  2000    1
    54   523   535    1
    55   523   522    1
    56  1930  1909    1
    57  1956  1952    1
    58  1909  1907    1
    59  1909  1911    1
    60  1904  1902    1
    61  1983  1982   ar
    62  1983  1984   ar
    63  1969  1993    1
    64  1969  1970    1
    65  1902  1906    1
    66  1902  1880    1
    67  1905  1906    1
    68  1905  1932    1
    69  1905  1907    1
    70   416   441    1
    71   416   418    1
    72   470   452    1
    73   437   422    1
    74  1958  1943    1
    75   469   452    1
    76  1943  1959    1
    77  1943  1944    1
    78   467   462    1
    79  1982  1979   ar
    80  1931  1907    1
    81   492   497    1
    82   492   491    1
    83   521   520    2
    84  2013  2018    1
    85  2013  2012    1
    86  1042  1030    1
    87   409   388    1
    88  2014  2015   ar
    89  2014  2011   ar
    90   420   421    1
    91   420   422    1
    92   420   418    1
    93  1030  1043    1
    94  1030  1029    1
    95   493   494   ar
    96   493   490   ar
    97   383   381    1
    98  1907  1908    1
    99  1955  1951    1
   100   384   385    1
   101   384   411    1
   102   384   386    1
   103   475   476    1
   104   475   451    1
   105   475   479    1
   106   381   385    1
   107   381   359    1
   108  2020  2015    1
   109  1028  1027    2
   110   435   431    1
   111   388   386    1
   112   388   390    1
   113   499   494    1
   114   421   443    1
   115  1940  1944    1
   116   452   450    1
   117   452   453    1
   118  1952  1951   ar
   119  1952  1945   ar
   120   471   450    1
   121  1929  1911    1
   122  1974  1970    1
   123  1974  1984    1
   124  1974  1989    1
   125  2000  1999    1
   126  1984  1978   ar
   127   422   438    1
   128   422   423    1
   129   434   430    1
   130  1928  1911    1
   131  1911  1912    1
   132   462   461   ar
   133   462   463   ar
   134   522   520   ar
   135   522   524   ar
   136  1987  1981    1
   137   537   509    1
   138   501   484    1
   139   494   495   ar
   140  2015  2016   ar
   141   520   519   ar
   142   461   458   ar
   143  1951  1949   ar
   144   451   450    1
   145   418   440    1
   146   418   419    1
   147   532   508    1
   148   410   386    1
   149  1880  1879    1
   150   386   387    1
   151   491   490   ar
   152   491   486   ar
   153  1944  1945    1
   154  1944  1957    1
   155   490   489   ar
   156   450   448    1
   157  2022  2005    1
   158  1027  1029   ar
   159  1027  1026   ar
   160  2012  2011   ar
   161  2012  2007   ar
   162  2011  2010   ar
   163  1029  1031   ar
   164  1979  1978   ar
   165  1979  1980   ar
   166   465   460    1
   167   431   430   ar
   168   431   424   ar
   169  1945  1946   ar
   170   479   478    1
   171   445   443    2
   172   509   508    1
   173   430   428   ar
   174   526   524    1
   175   502   484    1
   176  1898  1879    1
   177   524   516   ar
   178   407   390    1
   179  1978  1977   ar
   180   390   408    1
   181   390   391    1
   182  1981  1980    1
   183  1981  1986    1
   184   484   482    1
   185   484   485    1
   186   463   453    1
   187   463   457   ar
   188  1908  1912    1
   189   359   358    1
   190   508   533    1
   191   508   510    1
   192   443   444    1
   193   443   447    1
   194  1033  1031    1
   195  1031  1023   ar
   196   519   525    1
   197   519   517   ar
   198   495   489   ar
   199   495   485    1
   200   453   468    1
   201   453   449    1
   202   405   400    1
   203   503   482    1
   204   419   423    1
   205  1926  1921    1
   206   486   487   ar
   207  2024  2003    1
   208  1026  1032    1
   209  1026  1024   ar
   210  1999  2027    1
   211  1999  2026    1
   212  1999  2001    1
   213   458   457   ar
   214   458   459   ar
   215  1879  1881    1
   216  1879  1877    1
   217  1980  1975   ar
   218  2016  2010   ar
   219  2016  2006    1
   220   423   424    1
   221   423   436    1
   222   489   488   ar
   223  1949  1950    1
   224  1949  1948   ar
   225  1912  1927    1
   226  1912  1922    1
   227  1039  1015    1
   228  1897  1881    1
   229   460   466    1
   230   460   459    1
   231  2007  2008   ar
   232  2005  2023    1
   233  2005  2003    1
   234  2005  2006    1
   235  2010  2009   ar
   236   433   429    1
   237  1954  1950    1
   238   424   425   ar
   239  1044  1016    1
   240   377   358    1
   241  1016  1015    1
   242   387   391    1
   243  1946  1948   ar
   244  1946  1947    2
   245  1950  1953    1
   246   511   510    1
   247   511   515    1
   248   448   449    1
   249   448   446    1
   250   448   472    1
   251   516   517   ar
   252   516   515    1
   253   457   456   ar
   254   482   483    1
   255   482   480    1
   256  1023  1024   ar
   257  1023  1022    1
   258  1901  1875    1
   259   485   500    1
   260   485   481    1
   261   447   446    1
   262   428   429    1
   263   428   427   ar
   264   459   454   ar
   265  1921  1922   ar
   266  1921  1920   ar
   267   517   518    2
   268  1018  1022    1
   269  1018  1017    1
   270  1024  1025    2
   271   376   360    1
   272   478   506    1
   273   478   480    1
   274   478   505    1
   275   474   446    1
   276  2003  2001    1
   277  2003  2004    1
   278  1881  1896    1
   279  1881  1882    1
   280   358   360    1
   281   358   356    1
   282  1922  1916   ar
   283  1977  1976   ar
   284   400   401   ar
   285   400   399   ar
   286  1899  1877    1
   287   507   483    1
   288   429   432    1
   289   391   401    1
   290   391   406    1
   291   487   488   ar
   292   487   496    1
   293  2006  2002    1
   294  2006  2021    1
   295  1015  1017    1
   296  1015  1040    1
   297   510   531    1
   298   510   512    1
   299  1061  1060    2
   300   446   473    1
   301   568   556    1
   302  2001  2002    1
   303  2001  2025    1
   304  1877  1875    1
   305  1877  1878    1
   306  1975  1976   ar
   307   554   553    2
   308  2008  2009   ar
   309  2008  2017    1
   310   401   395   ar
   311  1034  1022    1
   312  1022  1021    1
   313   481   480    1
   314  1074  1063    1
   315   480   504    1
   316   515   527    1
   317   515   514    1
   318   360   375    1
   319   360   361    1
   320   425   427   ar
   321   425   426    2
   322   399   396   ar
   323  1920  1917   ar
   324  1976  1985    1
   325  1895  1882    1
   326  1875  1876    1
   327  1875  1900    1
   328   569   556    1
   329   528   514    1
   330  1017  1038    1
   331  1017  1019    1
   332   456   455   ar
   333  2028  2004    1
   334   378   356    1
   335  1076  1063    1
   336   454   455   ar
   337  1916  1915   ar
   338  1916  1917   ar
   339   380   354    1
   340  1882  1878    1
   341  1882  1883    1
   342   556   555    1
   343   556   567    1
   344  1060  1059   ar
   345  1060  1062   ar
   346  1065  1059    1
   347   356   354    1
   348   356   357    1
   349  1873  1872    2
   350   553   552   ar
   351   553   555   ar
   352  1876  1872    1
   353   530   512    1
   354   455   464    1
   355  1915  1914   ar
   356  1063  1062    1
   357  1063  1075    1
   358  1917  1918   ar
   359   514   512    1
   360   514   529    1
   361   558   552    1
   362   374   361    1
   363   512   513    1
   364  1099  1088    1
   365   352   351    2
   366   395   396   ar
   367   395   394   ar
   368  1037  1019    1
   369  1059  1057   ar
   370   396   397   ar
   371   552   550   ar
   372   354   355    1
   373   354   379    1
   374  1100  1090    1
   375   555   557   ar
   376   361   357    1
   377   361   362    1
   378   355   351    1
   379  1062  1064   ar
   380  1019  1021    1
   381  1019  1020    1
   382  1872  1874    1
   383  1872  1848    1
   384  1021  1035    1
   385  1021  1036    1
   386  1095  1094    2
   387  1883  1890   ar
   388  1883  1884   ar
   389  1088  1094   ar
   390  1088  1089   ar
   391  1914  1923    1
   392  1914  1913   ar
   393  1894  1890    1
   394   394   393   ar
   395   351   353    1
   396   351   327    1
   397  1885  1884    2
   398  1918  1913   ar
   399  1918  1919    1
   400  1090  1089    1
   401  1090  1101    1
   402   592   581    1
   403   588   587    2
   404   513   538    1
   405  1094  1093   ar
   406   557   559    1
   407   557   549   ar
   408   550   551    2
   409   550   549   ar
   410  1239  1210    1
   411   397   398    1
   412   397   392   ar
   413  1057  1058    2
   414  1057  1056   ar
   415  1890  1889   ar
   416   404   398    1
   417  1241  1240    2
   418  1884  1886   ar
   419   373   369    1
   420  1089  1091   ar
   421  1204  1180    1
   422   362   369   ar
   423   362   363   ar
   424  1238  1210    1
   425  1064  1056   ar
   426  1064  1066    1
   427   593   583    1
   428  1208  1207    2
   429  1919  1924    1
   430  1919  1925    1
   431  1165  1155    1
   432   398   403    1
   433   581   587   ar
   434   581   582   ar
   435  1020  1045    1
   436   587   586   ar
   437  1166  1155    1
   438   364   363    2
   439   549   548    1
   440   393   392   ar
   441   393   402    1
   442  1237  1212    1
   443  1848  1847    1
   444  1155  1154    1
   445   369   368   ar
   446  1056  1055    1
   447  1210  1212    1
   448  1210  1211    1
   449  1864  1849    1
   450   363   365   ar
   451   583   582    1
   452   583   594    1
   453   565   541    1
   454  1183  1207    1
   455  1183  1182    1
   456  1047  1045    2
   457   327   326    1
   458  1093  1092   ar
   459  1093  1096   ar
   460   734   733    2
   461  1889  1893    1
   462  1889  1887   ar
   463   582   584   ar
   464   540   538    2
   465   544   548    1
   466   544   543    1
   467  1091  1092   ar
   468  1886  1887   ar
   469  1180  1181    1
   470  1180  1178    1
   471  1180  1182    1
   472   538   542    1
   473   538   539    1
   474   658   648    1
   475  1212  1213    1
   476  1212  1214    1
   477  1206  1178    1
   478  1130  1124    1
   479   586   589   ar
   480   586   585   ar
   481  1207  1211    1
   482  1207  1209    1
   483   343   328    1
   484  1205  1178    1
   485  1240  1242    1
   486  1240  1215    1
   487  1240  1244    1
   488  1268  1243    1
   489  1181  1185    1
   490  1092  1098   ar
   491  1045  1049    1
   492  1045  1046    1
   493   732   703    1
   494  1154  1156   ar
   495  1154  1153   ar
   496   548   560    1
   497   548   547    1
   498  1269  1243    1
   499   659   648    1
   500  1887  1888    1
   501  1164  1153    1
   502  1096  1097   ar
   503   368   372    1
   504   368   366   ar
   505  1862  1850    1
   506  1847  1849    1
   507  1847  1865    1
   508  1847  1845    1
   509  1178  1179    1
   510   589   590   ar
   511   648   647    1
   512  1051  1055    1
   513  1051  1050    1
   514  1849  1863    1
   515  1849  1850    1
   516  1123  1122    2
   517  1200  1185    1
   518   542   541    1
   519   365   366   ar
   520  1182  1203    1
   521  1182  1184    1
   522   730   705    1
   523   541   543    1
   524   541   566    1
   525   584   585   ar
   526  1072  1048    1
   527  1055  1067    1
   528  1055  1054    1
   529  1049  1048    1
   530  1215  1214    1
   531   731   703    1
   532  1156  1157   ar
   533   585   591   ar
   534  1153  1159   ar
   535   762   736    1
   536   761   736    1
   537  1236  1214    1
   538  1243  1244    1
   539  1243  1245    1
   540  1124  1122   ar
   541  1124  1125   ar
   542  1213  1217    1
   543   326   344    1
   544   326   328    1
   545   326   324    1
   546  1214  1216    1
   547   697   673    1
   548   543   564    1
   549   543   545    1
   550   708   733    1
   551   708   707    1
   552   623   617    1
   553   366   367    1
   554   701   700    2
   555   328   342    1
   556   328   329    1
   557   341   329    1
   558   561   547    1
   559   703   705    1
   560   703   704    1
   561   733   735    1
   562   733   737    1
   563  1185  1184    1
   564  1185  1195    1
   565  1126  1125    2
   566  1168  1152    1
   567  1850  1846    1
   568  1850  1851    1
   569  1122  1121   ar
   570  1098  1097   ar
   571  1098  1087    1
   572  1196  1187    1
   573  1048  1050    1
   574  1048  1073    1
   575  1172  1147    1
   576  1097  1102    1
   577  1068  1054    1
   578   590   591   ar
   579   590   595    1
   580  1888  1891    1
   581  1888  1892    1
   582  1866  1845    1
   583   736   737    1
   584   736   738    1
   585   657   646    1
   586   547   562    1
   587   547   545    1
   588   705   707    1
   589   705   706    1
   590  1188  1187   ar
   591  1188  1189   ar
   592   647   646   ar
   593   647   649   ar
   594  1853  1852    2
   595   765   763    2
   596   591   580    1
   597  1125  1127   ar
   598   619   618    2
   599  1272  1270    2
   600  1050  1071    1
   601  1050  1052    1
   602  1233  1217    1
   603  1184  1202    1
   604  1184  1201    1
   605  1845  1846    1
   606  1845  1843    1
   607  1157  1158   ar
   608  1157  1163   ar
   609   676   700    1
   610   676   675    1
   611  1148  1152    1
   612  1148  1147    1
   613   616   615    2
   614  1054  1069    1
   615  1054  1052    1
   616   345   324    1
   617   617   618   ar
   618   617   615   ar
   619  1159  1160    2
   620  1159  1158   ar
   621   329   325    1
   622   329   330    1
   623  1103  1087    1
   624  1187  1186   ar
   625   332   331    2
   626  1267  1245    1
   627  1179  1175    1
   628   646   652   ar
   629   707   729    1
   630   707   709    1
   631  1217  1216    1
   632  1217  1228    1
   633   760   738    1
   634   689   680    1
   635   673   674    1
   636   673   671    1
   637   673   675    1
   638   367   370    1
   639   367   371    1
   640  1176  1175    2
   641  1152  1163    1
   642  1152  1151    1
   643  1150  1175    1
   644  1150  1149    1
   645   545   563    1
   646   545   546    1
   647   649   650   ar
   648   324   325    1
   649   324   322    1
   650  1851  1852   am
   651  1851  1859    1
   652  1195  1189   ar
   653  1195  1194   ar
   654  1245  1246    1
   655  1245  1247    1
   656   700   704    1
   657   700   702    1
   658   693   678    1
   659   674   678    1
   660  1147  1149    1
   661  1147  1145    1
   662   618   620   ar
   663   698   671    1
   664  1087  1083    1
   665  1087  1086    1
   666  1852  1854   am
   667  1189  1190   ar
   668   615   614   ar
   669  1158  1161   ar
   670  1216  1234    1
   671  1216  1235    1
   672  1083  1082    1
   673  1163  1162   ar
   674   576   580    1
   675   576   575    1
   676   699   671    1
   677   726   710    1
   678  1132  1120    1
   679   596   580    1
   680  1121  1120    1
   681  1121  1129   ar
   682   738   740    1
   683   738   739    1
   684   580   579    1
   685  1173  1145    1
   686   706   710    1
   687  1175  1177    1
   688  1052  1070    1
   689  1052  1053    1
   690   681   680   ar
   691   681   682   ar
   692   764   763    1
   693   671   672    1
   694   763   741    1
   695   763   767    1
   696   675   696    1
   697   675   677    1
   698   331   330   ar
   699   331   333   ar
   700  1116  1120    1
   701  1116  1115    1
   702   330   338   ar
   703  1868  1843    1
   704  1127  1129   ar
   705  1127  1128    1
   706   741   740    1
   707   680   679   ar
   708  1186  1191   ar
   709  1246  1250    1
   710   347   322    1
   711   678   677    1
   712   678   688    1
   713  1843  1844    1
   714  1843  1867    1
   715  1149  1151    1
   716  1149  1171    1
   717  1231  1220    1
   718  1120  1119    1
   719  1270  1271    1
   720  1270  1248    1
   721  1270  1274    1
   722   665   640    1
   723  1266  1247    1
   724  1861  1859    1
   725  1859  1857    1
   726   661   645    1
   727  1844  1840    1
   728   601   573    1
   729   652   653    2
   730   652   651   ar
   731  1139  1128    1
   732  1228  1222   ar
   733  1228  1227   ar
   734  1145  1174    1
   735  1145  1146    1
   736  1194  1199    1
   737  1194  1193   ar
   738  1854  1860    1
   739  1854  1855   am
   740   710   709    1
   741   710   721    1
   742   650   651   ar
   743   650   656   ar
   744  1247  1248    1
   745  1247  1249    1
   746   641   645    1
   747   641   640    1
   748  1129  1131    1
   749   633   621    1
   750   322   323    1
   751   322   346    1
   752   709   728    1
   753   709   727    1
   754   546   570    1
   755   614   622   ar
   756   614   613    1
   757  1151  1170    1
   758  1151  1169    1
   759  1221  1222   ar
   760  1221  1219   ar
   761  1162  1161   ar
   762  1162  1167    1
   763  1190  1191   ar
   764  1190  1193   ar
   765   620   622   ar
   766   620   621    1
   767  1136  1115    1
   768   740   759    1
   769   740   742    1
   770   609   613    1
   771   609   608    1
   772   625   613    1
   773  1107  1082    1
   774   724   713    1
   775   739   743    1
   776  1232  1227    1
   777   600   575    1
   778   323   319    1
   779  1841  1840    2
   780  1108  1080    1
   781   575   573    1
   782   575   577    1
   783  1191  1192    1
   784  1082  1080    1
   785  1082  1084    1
   786   677   695    1
   787   677   694    1
   788  1222  1223   ar
   789  1086  1105    1
   790  1086  1104    1
   791  1086  1084    1
   792   333   339    1
   793   333   334   ar
   794  1128  1140    1
   795  1128  1141    1
   796   320   319    2
   797   682   688   ar
   798   682   683   ar
   799   338   340    1
   800   338   336   ar
   801   651   654   ar
   802   645   656    1
   803   645   644    1
   804   666   638    1
   805  1227  1226   ar
   806  1220  1219    1
   807  1220  1230    1
   808  1137  1113    1
   809  1053  1077    1
   810   640   638    1
   811   640   642    1
   812   622   624    1
   813  1115  1113    1
   814  1115  1117    1
   815   679   684   ar
   816   613   612    1
   817   688   687   ar
   818  1857  1855    1
   819  1857  1858    1
   820   656   655   ar
   821   629   608    1
   822   573   574    1
   823   573   602    1
   824  1855  1856    2
   825   630   606    1
   826   579   597    1
   827   579   598    1
   828   579   577    1
   829   621   634    1
   830   621   632    1
   831  1219  1218   ar
   832  1263  1250    1
   833   767   766    1
   834  1869  1858    1
   835  1840  1842    1
   836  1840  1818    1
   837   672   668    1
   838  1274  1273    1
   839   643   642    1
   840   643   668    1
   841  1250  1249    1
   842  1250  1251    1
   843   714   715   ar
   844   714   712   ar
   845  1080  1081    1
   846  1080  1109    1
   847   574   570    1
   848   756   743    1
   849   721   715   ar
   850   721   720   ar
   851   713   712    1
   852   713   723    1
   853   608   606    1
   854   608   610    1
   855   319   321    1
   856   319   297    1
   857  1146  1142    1
   858   638   667    1
   859   638   639    1
   860  1119  1134    1
   861  1119  1117    1
   862  1119  1133    1
   863   572   570    2
   864  1084  1085    1
   865  1084  1106    1
   866   570   571    1
   867  1113  1114    1
   868  1113  1138    1
   869  1249  1264    1
   870  1249  1265    1
   871  1262  1258    1
   872  1081  1077    1
   873   669   668    2
   874  1192  1197    1
   875  1192  1198    1
   876   743   742    1
   877   743   744    1
   878  1118  1117    1
   879  1118  1142    1
   880   336   334   ar
   881   336   337    1
   882  1858  1870    1
   883  1858  1871    1
   884  1223  1226   ar
   885  1223  1224   ar
   886   334   335    2
   887   577   578    1
   888   577   599    1
   889  1085  1110    1
   890   742   758    1
   891   742   757    1
   892  1079  1077    2
   893   642   644    1
   894   642   664    1
   895   683   684   ar
   896   683   686   ar
   897  1117  1135    1
   898   654   655   ar
   899   684   685    1
   900   715   716   ar
   901   655   660    1
   902   606   631    1
   903   606   607    1
   904  1077  1078    1
   905   668   670    1
   906   712   711   ar
   907   795   766    1
   908  1835  1819    1
   909   687   692    1
   910   687   686   ar
   911  1218  1224   ar
   912  1218  1229    1
   913  1251  1258   ar
   914  1251  1252   ar
   915   644   663    1
   916   644   662    1
   917   578   603    1
   918  1258  1257   ar
   919  1114  1110    1
   920   766   794    1
   921   766   768    1
   922   725   720    1
   923   612   610    1
   924   612   627    1
   925   612   626    1
   926  1823  1822    2
   927  1818  1817    1
   928   720   719   ar
   929   611   610    1
   930   611   635    1
   931   348   337    1
   932  1273  1302    1
   933  1273  1301    1
   934  1273  1275    1
   935   755   751    1
   936  1224  1225    2
   937  1142  1143    2
   938  1142  1144    1
   939   610   628    1
   940  1253  1252    2
   941   607   603    1
   942   792   770    1
   943   297   296    1
   944   337   350    1
   945   337   349    1
   946  1299  1277    1
   947  1252  1254   ar
   948   691   685    1
   949   744   751   ar
   950   744   745   ar
   951   639   635    1
   952   685   690    1
   953   314   298    1
   954  1257  1261    1
   955  1257  1255   ar
   956  1110  1111    2
   957  1110  1112    1
   958  1819  1834    1
   959  1819  1817    1
   960  1819  1820    1
   961   636   635    2
   962   751   750   ar
   963   716   719   ar
   964   716   717   ar
   965   711   722    1
   966   711   717   ar
   967   302   301    2
   968   746   745    2
   969  1295  1290    1
   970  1800  1790    1
   971  1833  1820    1
   972   603   604    2
   973   603   605    1
   974   635   637    1
   975  1822  1824   ar
   976  1822  1821   ar
   977  1297  1279    1
   978  1817  1836    1
   979  1817  1815    1
   980   312   299    1
   981  1254  1255   ar
   982   745   747   ar
   983   768   770    1
   984   768   769    1
   985   768   793    1
   986  1255  1256    1
   987   770   771    1
   988   770   772    1
   989  1275  1277    1
   990  1275  1276    1
   991  1275  1300    1
   992  1824  1825   ar
   993  1277  1279    1
   994  1277  1278    1
   995  1801  1790    1
   996  1276  1280    1
   997  1820  1821    1
   998  1820  1816    1
   999   298   296    1
  1000   298   299    1
  1001   298   313    1
  1002   717   718    2
  1003   790   772    1
  1004  1790  1789    1
  1005   296   315    1
  1006   296   294    1
  1007  1837  1815    1
  1008   769   773    1
  1009  1290  1289   ar
  1010  1290  1291   ar
  1011   750   754    1
  1012   750   748   ar
  1013  1821  1828   ar
  1014  1305  1303    2
  1015   771   796    1
  1016   279   269    1
  1017  1279  1280    1
  1018  1279  1298    1
  1019  1256  1260    1
  1020  1256  1259    1
  1021   299   300    1
  1022   299   295    1
  1023   301   303   ar
  1024   301   300   ar
  1025   788   783    1
  1026   798   796    2
  1027  1799  1788    1
  1028  1829  1826    1
  1029   316   294    1
  1030  1289  1286   ar
  1031  1815  1816    1
  1032  1815  1813    1
  1033   772   773    1
  1034   772   791    1
  1035   747   748   ar
  1036  1278  1303    1
  1037  1825  1826    1
  1038  1825  1827   ar
  1039   280   269    1
  1040   797   796    1
  1041  1280  1291    1
  1042  1280  1296    1
  1043   796   800    1
  1044  1789  1788   ar
  1045  1789  1791   ar
  1046   748   749    1
  1047   303   304   ar
  1048   294   295    1
  1049   294   292    1
  1050  1826  1830    1
  1051   300   307   ar
  1052   269   268    1
  1053  1291  1285   ar
  1054  1788  1794   ar
  1055  1303  1304    1
  1056  1303  1307    1
  1057  1618  1617    2
  1058  1650  1649    2
  1059   773   784    1
  1060   773   789    1
  1061  1839  1813    1
  1062   783   784   ar
  1063   783   782   ar
  1064  1828  1827   ar
  1065  1828  1832    1
  1066  1619  1617    1
  1067  1827  1831    1
  1068  1286  1285   ar
  1069  1286  1287   ar
  1070  1813  1838    1
  1071  1813  1814    1
  1072  1791  1792   ar
  1073   784   778   ar
  1074   278   267    1
  1075   782   779   ar
  1076   318   292    1
  1077  1285  1284   ar
  1078  1323  1319    1
  1079   749   753    1
  1080   749   752    1
  1081  1794  1795    2
  1082  1794  1793   ar
  1083  1617  1592    1
  1084  1617  1621    1
  1085  1585  1584    2
  1086  1324  1320    1
  1087   268   267   ar
  1088   268   270   ar
  1089   304   305    1
  1090   304   306   ar
  1091   308   305    1
  1092   307   311    1
  1093   307   306   ar
  1094   292   317    1
  1095   292   293    1
  1096  1288  1287    2
  1097  1651  1649    1
  1098   800   799    1
  1099  1287  1281   ar
  1100  1649  1625    1
  1101  1649  1653    1
  1102   267   273   ar
  1103  1307  1306    1
  1104  1613  1591    1
  1105  1814  1810    1
  1106   824   799    1
  1107  1645  1620    1
  1108  1616  1587    1
  1109   305   309    1
  1110  1792  1793   ar
  1111  1792  1798   ar
  1112   778   779   ar
  1113   778   777   ar
  1114   306   310    1
  1115   779   780   ar
  1116  1319  1322    1
  1117  1319  1318    1
  1118   270   271   ar
  1119  1793  1796   ar
  1120  1320  1318   ar
  1121  1320  1321   ar
  1122  1284  1282   ar
  1123  1592  1591    1
  1124   293   289    1
  1125  1803  1787    1
  1126  1766  1763    1
  1127  1621  1620    1
  1128  1625  1624    1
  1129  1325  1321    1
  1130   799   825    1
  1131   799   801    1
  1132  1331  1306    1
  1133  1767  1763    1
  1134  1653  1652    1
  1135  1591  1589    1
  1136  1591  1593    1
  1137  1281  1282   ar
  1138  1281  1292    1
  1139  1318  1317   ar
  1140   817   813    1
  1141   777   775   ar
  1142  1584  1588    1
  1143  1584  1586    1
  1144  1584  1560    1
  1145  1620  1644    1
  1146  1620  1622    1
  1147  1681  1652    1
  1148  1321  1314   ar
  1149   273   274    2
  1150   273   272   ar
  1151  1306  1332    1
  1152  1306  1308    1
  1153  1642  1624    1
  1154  1763  1762    1
  1155  1587  1588    1
  1156  1587  1589    1
  1157  1587  1615    1
  1158   818   814    1
  1159  1805  1786    1
  1160  1282  1283    1
  1161  1798  1787    1
  1162  1798  1797   ar
  1163  1678  1656    1
  1164   780   781    2
  1165   780   774   ar
  1166  1787  1786    1
  1167  1787  1783    1
  1168  1614  1589    1
  1169   271   272   ar
  1170   271   277   ar
  1171  1624  1622    1
  1172  1624  1626    1
  1173  1732  1731    2
  1174  1684  1682    2
  1175  1810  1811    2
  1176  1810  1785    1
  1177  1810  1812    1
  1178   282   266    1
  1179  1796  1797   ar
  1180   802   801    1
  1181   802   806    1
  1182  1589  1590    1
  1183  1676  1658    1
  1184   290   289    2
  1185  1652  1680    1
  1186  1652  1654    1
  1187   813   814   ar
  1188   813   811   ar
  1189   816   812    1
  1190  1309  1308    1
  1191  1309  1313    1
  1192  1674  1669    1
  1193   814   807   ar
  1194  1612  1593    1
  1195   289   291    1
  1196   289   264    1
  1197  1560  1559    1
  1198   801   823    1
  1199   801   803    1
  1200   272   275   ar
  1201   775   774   ar
  1202   775   776    1
  1203  1611  1593    1
  1204  1646  1635    1
  1205  1593  1594    1
  1206  1622  1643    1
  1207  1622  1623    1
  1208  1317  1315   ar
  1209  1786  1804    1
  1210  1786  1784    1
  1211  1797  1802    1
  1212  1314  1315   ar
  1213  1314  1313    1
  1214  1785  1784    1
  1215   284   265    1
  1216   774   785    1
  1217  1762  1761   ar
  1218  1762  1764   ar
  1219  1308  1330    1
  1220  1308  1310    1
  1221  1362  1351    1
  1222  1283  1294    1
  1223  1283  1293    1
  1224  1705  1699    1
  1225   812   811    1
  1226   812   815    1
  1227  1656  1658    1
  1228  1656  1654    1
  1229  1656  1657    1
  1230  1783  1782    1
  1231  1761  1759   ar
  1232   811   810   ar
  1233  1638  1636    1
  1234   277   266    1
  1235   277   276   ar
  1236  1329  1310    1
  1237  1658  1677    1
  1238  1658  1659    1
  1239  1731  1730   ar
  1240  1731  1725   ar
  1241  1648  1635    1
  1242  1315  1316    2
  1243   266   265    1
  1244   266   262    1
  1245  1768  1764    1
  1246  1313  1326    1
  1247  1313  1312    1
  1248   264   263    1
  1249   807   806    1
  1250   807   808   ar
  1251  1669  1668   ar
  1252  1669  1670   ar
  1253   245   242    1
  1254   787   776    1
  1255   776   786    1
  1256  1733  1730   ar
  1257  1733  1734   ar
  1258    97    96    2
  1259   822   803    1
  1260  1784  1782    1
  1261  1784  1806    1
  1262   806   819    1
  1263   806   805    1
  1264  1640  1626    1
  1265  1654  1679    1
  1266  1654  1655    1
  1267  1626  1641    1
  1268  1626  1627    1
  1269  1736  1725    1
  1270  1635  1647    1
  1271  1635  1634    1
  1272  1682  1683    1
  1273  1682  1657    1
  1274  1682  1686    1
  1275  1764  1765   ar
  1276  1668  1665   ar
  1277   265   263    1
  1278   265   283    1
  1279  1699  1704    1
  1280  1699  1698    1
  1281  1590  1594    1
  1282  1577  1559    1
  1283   803   804    1
  1284   803   805    1
  1285  1730  1729   ar
  1286  1578  1557    1
  1287  1310  1312    1
  1288  1310  1311    1
  1289   246   242    1
  1290  1349  1348    2
  1291   275   276   ar
  1292  1700  1701   ar
  1293  1700  1697   ar
  1294  1559  1557    1
  1295  1559  1561    1
  1296  1807  1782    1
  1297    98    96    1
  1298  1725  1726   ar
  1299  1594  1610    1
  1300  1594  1605    1
  1301  1364  1351    1
  1302  1623  1627    1
  1303  1351  1363    1
  1304  1351  1350    1
  1305   242   241    1
  1306  1782  1780    1
  1307   810   808   ar
  1308  1636  1634   ar
  1309  1636  1628   ar
  1310  1706  1701    1
  1311  1759  1760    2
  1312  1759  1758   ar
  1313   276   281    1
  1314   808   809    2
  1315   262   261    1
  1316   855   844    1
  1317    64    63    2
  1318   263   261    1
  1319   263   285    1
  1320  1580  1555    1
  1321  1734  1739    1
  1322  1734  1735   ar
  1323  1576  1561    1
  1324  1655  1659    1
  1325    96   100    1
  1326    96    71    1
  1327  1670  1659    1
  1328  1670  1664   ar
  1329  1634  1632   ar
  1330  1659  1675    1
  1331   804   826    1
  1332  1771  1756    1
  1333  1312  1327    1
  1334  1312  1328    1
  1335   211   210    2
  1336  1701  1702   ar
  1337  1557  1555    1
  1338  1557  1558    1
  1339  1627  1628    1
  1340  1627  1639    1
  1341  1609  1604    1
  1342  1765  1758   ar
  1343  1765  1769    1
  1344   805   821    1
  1345   805   820    1
  1346   240   241   ar
  1347   240   238   ar
  1348  1686  1685    1
  1349  1698  1697   ar
  1350  1698  1693   ar
  1351   241   243   ar
  1352   130   128    2
  1353  1697  1696   ar
  1354  1311  1333    1
  1355   286   261    1
  1356    92    70    1
  1357  1561  1575    1
  1358  1561  1562    1
  1359  1348  1350   ar
  1360  1348  1347   ar
  1361  1553  1552    2
  1362  1574  1562    1
  1363  1758  1757    1
  1364  1665  1664   ar
  1365  1665  1666   ar
  1366  1628  1629   ar
  1367   857   844    1
  1368  1729  1735   ar
  1369  1729  1728   ar
  1370   261   259    1
  1371  1335  1333    2
  1372  1350  1352   ar
  1373  1726  1727    1
  1374  1726  1728   ar
  1375  1708  1691    1
  1376   127   114    1
  1377  1737  1727    1
  1378  1605  1604   ar
  1379  1605  1599   ar
  1380  1555  1556    1
  1381  1555  1579    1
  1382   844   856    1
  1383   844   843    1
  1384   121   103    1
  1385  1773  1754    1
  1386   215   204    1
  1387   239   238    2
  1388  1735  1724    1
  1389  1604  1603   ar
  1390   828   826    2
  1391   100    99    1
  1392   238   237   ar
  1393    95    66    1
  1394  1741  1723    1
  1395  1667  1666    2
  1396  1664  1663   ar
  1397  1780  1808    1
  1398  1780  1781    1
  1399  1780  1809    1
  1400  1742  1723    1
  1401   210   204   ar
  1402   210   209   ar
  1403    71    70    1
  1404  1727  1738    1
  1405   184   178    1
  1406  1562  1558    1
  1407  1562  1563    1
  1408    63    65    1
  1409    63    67    1
  1410    63    39    1
  1411  1756  1754    1
  1412  1756  1757    1
  1413  1756  1772    1
  1414   124    99    1
  1415   243   247    1
  1416   243   244   ar
  1417   826   827    1
  1418   826   830    1
  1419   250   235    1
  1420   119   105    1
  1421  1556  1552    1
  1422  1333  1334    1
  1423  1333  1337    1
  1424  1632  1633    2
  1425  1632  1631   ar
  1426  1666  1660   ar
  1427   842   841    2
  1428   126   114    1
  1429    70    72    1
  1430    70    68    1
  1431  1702  1696   ar
  1432  1702  1692    1
  1433  1781  1777    1
  1434  1693  1694   ar
  1435   204   205   ar
  1436  1353  1347    1
  1437  1347  1345   ar
  1438  1754  1755    1
  1439  1754  1752    1
  1440    67    66    1
  1441  1696  1695   ar
  1442  1755  1777    1
  1443   183   178    1
  1444   129   128    1
  1445  1757  1770    1
  1446  1757  1753    1
  1447  1723  1724    1
  1448  1723  1721    1
  1449   128   104    1
  1450   128   132    1
  1451   114   125    1
  1452   114   113    1
  1453  1552  1554    1
  1454  1552  1527    1
  1455  1685  1712    1
  1456  1685  1713    1
  1457  1685  1687    1
  1458  1629  1631   ar
  1459  1629  1630    2
  1460  1352  1354    1
  1461  1352  1344   ar
  1462  1749  1747    2
  1463  1691  1709    1
  1464  1691  1692    1
  1465  1691  1689    1
  1466   178   177    1
  1467  1599  1598   ar
  1468  1599  1600   ar
  1469   843   841   ar
  1470   843   845   ar
  1471  1710  1689    1
  1472    99   123    1
  1473    99   101    1
  1474   117   115    1
  1475   237   244   ar
  1476   237   236    1
  1477    66    68    1
  1478    66    94    1
  1479   103   105    1
  1480   103   104    1
  1481   103   101    1
  1482    91    72    1
  1483   209   212   ar
  1484   209   208   ar
  1485   212   213   ar
  1486    90    72    1
  1487   244   248    1
  1488   120   105    1
  1489  1598  1596   ar
  1490   841   840   ar
  1491  1724  1740    1
  1492  1724  1720    1
  1493  1384  1381    1
  1494   216   206    1
  1495  1631  1637    1
  1496   105   106    1
  1497   259   260    1
  1498   259   287    1
  1499   259   288    1
  1500  1603  1600   ar
  1501    72    73    1
  1502  1385  1381    1
  1503  1663  1661   ar
  1504   853   829    1
  1505    39    38    1
  1506   260   256    1
  1507    68    93    1
  1508    68    69    1
  1509   235   251    1
  1510   235   236    1
  1511   235   233    1
  1512   153   148    1
  1513  1692  1688    1
  1514  1692  1707    1
  1515  1565  1564    2
  1516  1337  1336    1
  1517   830   829    1
  1518   205   206    1
  1519   205   207   ar
  1520  1694  1695   ar
  1521  1694  1703    1
  1522  1751  1747    1
  1523  1751  1750    1
  1524  1518  1494    1
  1525  1777  1778    2
  1526  1777  1779    1
  1527  1689  1687    1
  1528  1689  1690    1
  1529  1563  1564   ar
  1530  1563  1571   ar
  1531  1381  1380    1
  1532  1660  1661   ar
  1533  1660  1671    1
  1534   847   845    1
  1535  1716  1714    2
  1536   147   148   ar
  1537   147   144   ar
  1538   206   217    1
  1539   132   131    1
  1540   115   113   ar
  1541   115   107   ar
  1542  1600  1601   ar
  1543  1345  1344   ar
  1544  1345  1346    2
  1545   249   236    1
  1546  1688  1687    1
  1547  1753  1752    1
  1548   113   111   ar
  1549   845   837   ar
  1550   236   232    1
  1551   101   122    1
  1552   101   102    1
  1553  1497  1521    1
  1554  1497  1496    1
  1555  1607  1597    1
  1556  1687  1711    1
  1557   155   137    1
  1558  1344  1343    1
  1559  1360  1336    1
  1560  1527  1526    1
  1561   179   176   ar
  1562   179   180   ar
  1563   177   176   ar
  1564   177   172   ar
  1565  1752  1750    1
  1566  1752  1774    1
  1567  1743  1721    1
  1568   148   149   ar
  1569  1573  1571    1
  1570   208   207   ar
  1571   208   214   ar
  1572  1747  1722    1
  1573  1747  1748    1
  1574   213   218    1
  1575   213   214   ar
  1576   252   233    1
  1577  1720  1719    1
  1578   840   846    1
  1579   840   838   ar
  1580  1661  1662    1
  1581  1721  1722    1
  1582  1721  1719    1
  1583  1564  1566   ar
  1584   829   854    1
  1585   829   831    1
  1586    56    38    1
  1587  1596  1597    1
  1588  1596  1595   ar
  1589   146   145    2
  1590   233   234    1
  1591   233   231    1
  1592  1336  1361    1
  1593  1336  1338    1
  1594   878   874    1
  1595   176   175   ar
  1596  1571  1569   ar
  1597   157   135    1
  1598    38    40    1
  1599    38    36    1
  1600  1597  1608    1
  1601  1718  1714    1
  1602  1718  1717    1
  1603  1750  1776    1
  1604  1750  1775    1
  1605   258   256    2
  1606   106   107    1
  1607   106   102    1
  1608   106   118    1
  1609   234   256    1
  1610   256   257    1
  1611  1339  1343    1
  1612  1339  1338    1
  1613  1514  1499    1
  1614  1494  1496    1
  1615  1494  1495    1
  1616  1494  1492    1
  1617    73    69    1
  1618    73    89    1
  1619    73    84    1
  1620   214   203    1
  1621  1417  1412    1
  1622    59    34    1
  1623  1478  1469    1
  1624   172   173   ar
  1625   107   108   ar
  1626    55    40    1
  1627   144   145   ar
  1628   144   143   ar
  1629   877   874    1
  1630    88    83    1
  1631   837   838   ar
  1632   837   836    1
  1633  1714  1690    1
  1634  1714  1715    1
  1635   185   180    1
  1636   180   181   ar
  1637  1380  1379   ar
  1638  1380  1382   ar
  1639   832   831    1
  1640   832   836    1
  1641   137   156    1
  1642   137   135    1
  1643   137   138    1
  1644  1543  1528    1
  1645  1356  1342    1
  1646   838   839    2
  1647  1719  1717    1
  1648  1719  1744    1
  1649  1601  1595   ar
  1650  1601  1602    2
  1651  1496  1517    1
  1652  1496  1498    1
  1653  1520  1492    1
  1654   111   112    2
  1655   111   110   ar
  1656   221   202    1
  1657   874   873    1
  1658   145   139   ar
  1659   220   202    1
  1660  1343  1342    1
  1661  1343  1355    1
  1662  1495  1499    1
  1663  1595  1606    1
  1664   131   160    1
  1665   131   159    1
  1666   131   133    1
  1667  1510  1501    1
  1668   232   231    1
  1669  1541  1529    1
  1670    57    36    1
  1671   149   143   ar
  1672   149   138    1
  1673  1526  1544    1
  1674  1526  1528    1
  1675  1526  1524    1
  1676  1662  1673    1
  1677  1662  1672    1
  1678  1379  1377   ar
  1679   831   852    1
  1680   831   833    1
  1681    40    54    1
  1682    40    41    1
  1683  1386  1382    1
  1684   135   133    1
  1685   135   136    1
  1686  1338  1359    1
  1687  1338  1340    1
  1688  1566  1572    1
  1689  1566  1567   ar
  1690  1519  1492    1
  1691  1492  1493    1
  1692  1545  1524    1
  1693  1717  1745    1
  1694  1717  1746    1
  1695    36    34    1
  1696    36    37    1
  1697  1499  1498    1
  1698  1499  1509    1
  1699   202   203    1
  1700   202   200    1
  1701    83    84   ar
  1702    83    82   ar
  1703   849   835    1
  1704  1502  1501   ar
  1705  1502  1503   ar
  1706   175   181   ar
  1707   175   174   ar
  1708    84    78   ar
  1709  1406  1407   ar
  1710  1406  1411   ar
  1711  1532  1531    2
  1712  1412  1418    1
  1713  1412  1411    1
  1714  1569  1567   ar
  1715  1569  1570    1
  1716   231   253    1
  1717   231   229    1
  1718   879   875    1
  1719  1416  1407    1
  1720    34    35    1
  1721    34    58    1
  1722  1342  1340    1
  1723  1342  1357    1
  1724  1382  1383   ar
  1725   836   835    1
  1726   836   848    1
  1727  1528  1529    1
  1728  1528  1542    1
  1729  1469  1470   ar
  1730  1469  1468   ar
  1731   143   142   ar
  1732   173   174   ar
  1733   173   182    1
  1734   203   219    1
  1735   203   199    1
  1736   138   134    1
  1737   138   154    1
  1738   108   110   ar
  1739   108   109    2
  1740   181   171    1
  1741  1516  1498    1
  1742   110   116    1
  1743    32    31    2
  1744  1501  1500   ar
  1745   228   226    2
  1746  1498  1515    1
  1747   230   229    1
  1748   230   226    1
  1749   187   170    1
  1750  1581  1570    1
  1751   133   134    1
  1752   133   158    1
  1753  1470  1471   ar
  1754  1529  1525    1
  1755  1529  1530    1
  1756   873   875   ar
  1757   873   872   ar
  1758    35    31    1
  1759  1524  1525    1
  1760  1524  1522    1
  1761    53    41    1
  1762   136   161    1
  1763  1567  1568    2
  1764  1358  1340    1
  1765   139   150    1
  1766   139   140   ar
  1767   851   833    1
  1768  1407  1408   ar
  1769   835   833    1
  1770   835   850    1
  1771  1340  1341    1
  1772  1411  1410   ar
  1773  1468  1473   ar
  1774   875   876   ar
  1775   188   170    1
  1776   833   834    1
  1777    41    37    1
  1778    41    42    1
  1779  1377  1378    2
  1780  1377  1376   ar
  1781  1570  1583    1
  1782  1570  1582    1
  1783    82    79   ar
  1784  1503  1509   ar
  1785  1503  1504   ar
  1786  1509  1508   ar
  1787   229   255    1
  1788   229   254    1
  1789  1482  1467    1
  1790    78    77   ar
  1791    78    79   ar
  1792   170   171    1
  1793   170   168    1
  1794  1531  1530   ar
  1795  1531  1533   ar
  1796  1440  1439    2
  1797    31    33    1
  1798    31     6    1
  1799   911   905    1
  1800  1547  1522    1
  1801   226   201    1
  1802   226   227    1
  1803   199   198    1
  1804  1493  1489    1
  1805   142   140   ar
  1806  1383  1376   ar
  1807  1383  1387    1
  1808   872   870   ar
  1809   200   222    1
  1810   200   201    1
  1811   200   198    1
  1812   171   186    1
  1813   171   167    1
  1814    77    75   ar
  1815  1530  1538   ar
  1816   140   141    1
  1817  1500  1505   ar
  1818  1490  1489    2
  1819  1522  1546    1
  1820  1522  1523    1
  1821    79    80   ar
  1822  1471  1477   ar
  1823  1471  1472   ar
  1824  1376  1375    1
  1825  1486  1462    1
  1826  1539  1533    1
  1827   165   161    1
  1828   165   164    1
  1829  1408  1409   ar
  1830   876   880    1
  1831   876   869   ar
  1832  1465  1489    1
  1833  1465  1464    1
  1834   195   193    2
  1835  1463  1467    1
  1836  1463  1462    1
  1837  1473  1472   ar
  1838  1473  1474    1
  1839    52    50    1
  1840   161   163    2
  1841   161   162    1
  1842    42    50   ar
  1843    42    43   ar
  1844  1410  1409   ar
  1845  1410  1413   ar
  1846  1341  1365    1
  1847  1467  1477    1
  1848  1467  1466    1
  1849   905   910    1
  1850   905   904    1
  1851   834   858    1
  1852  1533  1534   ar
  1853  1441  1439   ar
  1854  1441  1442   ar
  1855  1439  1438   ar
  1856  1489  1491    1
  1857  1446  1443    1
  1858   198   223    1
  1859   198   196    1
  1860  1508  1513    1
  1861  1508  1507   ar
  1862   167   166    1
  1863  1504  1505   ar
  1864  1504  1507   ar
  1865   189   168    1
  1866  1450  1437    1
  1867  1480  1474    1
  1868    87    76    1
  1869    44    43    2
  1870   197   193    1
  1871   197   196    1
  1872  1477  1476   ar
  1873   168   166    1
  1874   168   169    1
  1875    50    48   ar
  1876  1505  1506    1
  1877    75    76    1
  1878    75    74   ar
  1879   870   869   ar
  1880   870   871    2
  1881  1472  1475   ar
  1882     6     5    1
  1883   141   151    1
  1884   141   152    1
  1885  1409  1415   ar
  1886  1462  1464    1
  1887  1462  1460    1
  1888   899   904   ar
  1889   899   900   ar
  1890  1367  1365    2
  1891  1474  1479    1
  1892    43    45   ar
  1893  1538  1540    1
  1894  1538  1536   ar
  1895    22     7    1
  1896   869   868    1
  1897  1523  1551    1
  1898    80    74   ar
  1899    80    81    2
  1900  1484  1466    1
  1901  1464  1466    1
  1902  1464  1485    1
  1903   860   858    2
  1904   904   903   ar
  1905    76    86    1
  1906  1393  1368    1
  1907   193   169    1
  1908   193   194    1
  1909  1413  1414   ar
  1910  1371  1375    1
  1911  1371  1370    1
  1912   166   164    1
  1913   166   190    1
  1914  1466  1483    1
  1915  1375  1388    1
  1916  1375  1374    1
  1917  1443  1442    1
  1918  1443  1447    1
  1919   164   191    1
  1920   164   192    1
  1921   196   224    1
  1922   196   225    1
  1923    61    49    1
  1924    74    85    1
  1925  1365  1369    1
  1926  1365  1366    1
  1927   909   900    1
  1928  1442  1444   ar
  1929  1452  1436    1
  1930  1438  1437    1
  1931  1438  1445   ar
  1932  1437  1436    1
  1933  1437  1433    1
  1934  1011   987    1
  1935  1534  1536   ar
  1936  1534  1535    2
  1937   858   862    1
  1938   858   859    1
  1939  1487  1460    1
  1940    48    49    1
  1941    48    46   ar
  1942   900   901   ar
  1943   886   861    1
  1944  1369  1368    1
  1945  1451  1436    1
  1946  1476  1475   ar
  1947  1476  1481    1
  1948  1506  1512    1
  1949  1506  1511    1
  1950   971   962    1
  1951  1536  1537    1
  1952   864   868    1
  1953   864   863    1
  1954    45    46   ar
  1955    45    51    1
  1956     5     7    1
  1957     5    23    1
  1958     5     3    1
  1959  1436  1434    1
  1960  1460  1488    1
  1961  1460  1461    1
  1962     7    21    1
  1963     7     8    1
  1964    20     8    1
  1965  1389  1374    1
  1966  1368  1370    1
  1967  1368  1394    1
  1968  1415  1414   ar
  1969  1415  1405    1
  1970    49    60    1
  1971    49    62    1
  1972   862   861    1
  1973   868   881    1
  1974   868   867    1
  1975  1414  1419    1
  1976   903   906   ar
  1977   903   902   ar
  1978  1433  1432    1
  1979    46    47    2
  1980  1374  1390    1
  1981  1374  1372    1
  1982  1013   985    1
  1983  1370  1392    1
  1984  1370  1372    1
  1985   882   867    1
  1986   990  1014    1
  1987   990   989    1
  1988   861   863    1
  1989   861   887    1
  1990  1445  1444   ar
  1991  1445  1449    1
  1992  1444  1448    1
  1993   987   988    1
  1994   987   985    1
  1995   987   989    1
  1996     8     9    1
  1997     8     4    1
  1998  1420  1405    1
  1999   962   961   ar
  2000   962   963   ar
  2001  1003   994    1
  2002   901   902   ar
  2003  1012   985    1
  2004    11    10    2
  2005    24     3    1
  2006  1007   992    1
  2007   988   992    1
  2008  1461  1457    1
  2009   906   907   ar
  2010   985   986    1
  2011  1454  1432    1
  2012  1405  1401    1
  2013  1405  1404    1
  2014   863   885    1
  2015   863   865    1
  2016   867   883    1
  2017   867   865    1
  2018   902   908   ar
  2019     3     4    1
  2020     3     1    1
  2021   961   966   ar
  2022  1401  1400    1
  2023  1537  1548    1
  2024  1537  1549    1
  2025  1537  1550    1
  2026   989  1010    1
  2027   989   991    1
  2028  1372  1391    1
  2029  1372  1373    1
  2030   933   932    2
  2031   963   964   ar
  2032  1432  1434    1
  2033  1432  1430    1
  2034   995   994   ar
  2035   995   996   ar
  2036  1434  1435    1
  2037  1434  1453    1
  2038    10     9   ar
  2039    10    12   ar
  2040     9    17   ar
  2041   994   993   ar
  2042   939   936    1
  2043   992   991    1
  2044   992  1002    1
  2045    26     1    1
  2046   934   932   ar
  2047   934   935   ar
  2048  1435  1457    1
  2049   865   884    1
  2050   865   866    1
  2051   979   955    1
  2052   907   908   ar
  2053   907   912    1
  2054   932   931   ar
  2055   973   967    1
  2056   908   898    1
  2057     1     2    1
  2058     1    25    1
  2059  1457  1459    2
  2060  1457  1458    1
  2061  1373  1395    1
  2062    12    18    1
  2063    12    13   ar
  2064   966   967    1
  2065   966   965   ar
  2066   991  1009    1
  2067   991  1008    1
  2068   996  1002   ar
  2069   996   997   ar
  2070    17    19    1
  2071    17    15   ar
  2072   986   982    1
  2073  1404  1422    1
  2074  1404  1421    1
  2075  1404  1402    1
  2076   936   935    1
  2077   936   940    1
  2078  1425  1398    1
  2079   975   960    1
  2080   964   965   ar
  2081   964   970   ar
  2082  1002  1001   ar
  2083   993   998   ar
  2084  1455  1430    1
  2085  1400  1424    1
  2086  1400  1398    1
  2087  1400  1402    1
  2088   983   982    2
  2089   956   955    1
  2090   956   960    1
  2091  1430  1431    1
  2092  1430  1456    1
  2093   980   953    1
  2094   967   972    1
  2095   935   937   ar
  2096   943   930    1
  2097   955   953    1
  2098   955   957    1
  2099     2    30    1
  2100   965   968   ar
  2101  1398  1399    1
  2102  1398  1426    1
  2103  1399  1395    1
  2104   866   888    1
  2105    15    13   ar
  2106    15    16    1
  2107   960   970    1
  2108   960   959    1
  2109   913   898    1
  2110  1431  1427    1
  2111   894   898    1
  2112   894   893    1
  2113    13    14    2
  2114   931   930    1
  2115   931   938   ar
  2116   898   897    1
  2117   982   958    1
  2118   982   984    1
  2119   970   969   ar
  2120   981   953    1
  2121  1402  1403    1
  2122  1402  1423    1
  2123   958   957    1
  2124   953   954    1
  2125  1397  1395    2
  2126   997   998   ar
  2127   997  1000   ar
  2128  1395  1396    1
  2129   998   999    1
  2130   930   926    1
  2131   930   929    1
  2132  1403  1427    1
  2133  1001  1006    1
  2134  1001  1000   ar
  2135   926   925    1
  2136    29    16    1
  2137   890   888    2
  2138   918   891    1
  2139   957   959    1
  2140   957   978    1
  2141   937   938   ar
  2142   937   941    1
  2143    16    28    1
  2144    16    27    1
  2145   938   942    1
  2146   968   969   ar
  2147   947   925    1
  2148   888   892    1
  2149   888   889    1
  2150   969   974    1
  2151  1005   999    1
  2152  1427  1429    2
  2153  1427  1428    1
  2154   892   891    1
  2155   999  1004    1
  2156   959   977    1
  2157   959   976    1
  2158   893   891    1
  2159   893   917    1
  2160   893   895    1
  2161   891   919    1
  2162   897   914    1
  2163   897   915    1
  2164   897   895    1
  2165   925   927    1
  2166   925   923    1
  2167   954   950    1
  2168   928   927    1
  2169   928   950    1
  2170   945   929    1
  2171   929   927    1
  2172   929   944    1
  2173   948   923    1
  2174   951   950    2
  2175   927   946    1
  2176   895   896    1
  2177   895   916    1
  2178   950   952    1
  2179   923   924    1
  2180   923   949    1
  2181   896   920    1
  2182   924   920    1
  2183   920   922    2
  2184   920   921    1
