@<TRIPOS>MOLECULE
1z04_EFGH.pdb
   507    546     16
SMALL
USER_CHARGES


@<TRIPOS>ATOM
       1  C1       -14.8280  -45.3630   13.6980 C.3       4 T4          0.0729
       2  O1       -15.6290  -44.3960   14.3970 O.3       4 T4         -0.3924
       3  C2       -15.5660  -46.1210   12.5770 C.3       4 T4          0.1107
       4  O2       -16.8410  -46.6360   13.0650 O.3       4 T4         -0.3483
       5  C3       -15.8830  -45.2700   11.3270 C.3       4 T4          0.0982
       6  O3       -15.4650  -45.9050   10.1100 O.3       4 T4         -0.3213
       7  C4       -17.3960  -45.0940   11.3830 C.3       4 T4          0.0221
       8  C5       -17.8750  -46.3460   12.1300 C.3       4 T4          0.1422
       9  N1       -19.0990  -46.1690   12.9300 N.ar      4 T4         -0.2737
      10  C6       -20.0940  -47.1240   12.9160 C.ar      4 T4          0.3313
      11  O4       -20.0460  -48.1400   12.2360 O.2       4 T4         -0.2464
      12  N2       -21.1510  -46.8510   13.7440 N.ar      4 T4         -0.2747
      13  C7       -21.2460  -45.8320   14.6580 C.ar      4 T4          0.2568
      14  O5       -22.1820  -45.8100   15.4560 O.2       4 T4         -0.2674
      15  C8       -20.1860  -44.8560   14.6000 C.ar      4 T4          0.0302
      16  C9       -20.1680  -43.7220   15.5780 C.3       4 T4         -0.0332
      17  C10      -19.1520  -45.1040   13.7890 C.ar      4 T4          0.0199
      18  H1       -21.8710  -47.5660   13.7760 H         4 T4          0.1734
      19  H2       -18.2370  -44.5060   13.8080 H         4 T4          0.0816
      20  H3       -17.9230  -47.2000   11.4110 H         4 T4          0.0840
      21  H4       -17.6140  -44.1580   11.9320 H         4 T4          0.0335
      22  H5       -17.8630  -45.0340   10.3850 H         4 T4          0.0335
      23  H6       -15.3760  -44.2860   11.4670 H         4 T4          0.0628
      24  H7       -14.9630  -46.9940   12.2470 H         4 T4          0.0646
      25  H8       -14.4880  -46.1150   14.4450 H         4 T4          0.0584
      26  H9       -13.9200  -44.8820   13.2710 H         4 T4          0.0584
      27  H10      -19.6310  -44.0040   16.5110 H         4 T4          0.0280
      28  H11      -21.2010  -43.4170   15.8600 H         4 T4          0.0280
      29  H12      -19.6620  -42.8310   15.1450 H         4 T4          0.0280
      30  H13      -16.3010  -44.9410   14.8380 H         4 T4          0.2095
      31  P1       -15.4220  -45.0800    8.7660 P.3       5 T5          0.2130
      32  O6       -14.4020  -45.7040    7.8970 O.2       5 T5         -0.5172
      33  O7       -15.1820  -43.6590    9.0880 O.co2     5 T5         -0.4373
      34  C11      -17.1830  -46.6180    7.6600 C.3       5 T5          0.0836
      35  O8       -16.8340  -45.2750    8.0990 O.3       5 T5         -0.3248
      36  C12      -18.6960  -46.8170    7.4930 C.3       5 T5          0.1114
      37  O9       -19.3690  -46.5210    8.7460 O.3       5 T5         -0.3483
      38  C13      -19.3630  -45.8650    6.4700 C.3       5 T5          0.0983
      39  O10      -19.8600  -46.5850    5.3470 O.3       5 T5         -0.3213
      40  C14      -20.4780  -45.1870    7.2700 C.3       5 T5          0.0221
      41  C15      -20.6870  -46.1320    8.4440 C.3       5 T5          0.1422
      42  N3       -21.2170  -45.4460    9.6200 N.ar      5 T5         -0.2737
      43  C16      -22.3230  -45.9260   10.2680 C.ar      5 T5          0.3313
      44  O11      -22.9190  -46.9430    9.9270 O.2       5 T5         -0.2464
      45  N4       -22.7330  -45.1670   11.3240 N.ar      5 T5         -0.2747
      46  C17      -22.1770  -43.9870   11.7740 C.ar      5 T5          0.2568
      47  O12      -22.6810  -43.3810   12.7080 O.2       5 T5         -0.2674
      48  C18      -21.0010  -43.5550   11.0560 C.ar      5 T5          0.0302
      49  C19      -20.2110  -42.3780   11.5440 C.3       5 T5         -0.0332
      50  C20      -20.5630  -44.3200   10.0580 C.ar      5 T5          0.0199
      51  H14      -23.5590  -45.5300   11.7900 H         5 T5          0.1734
      52  H15      -19.5730  -44.1890    9.6030 H         5 T5          0.0816
      53  H16      -21.2600  -47.0390    8.1310 H         5 T5          0.0840
      54  H17      -20.0970  -44.1980    7.5880 H         5 T5          0.0335
      55  H18      -21.4330  -45.0390    6.7370 H         5 T5          0.0335
      56  H19      -18.5960  -45.1180    6.1570 H         5 T5          0.0628
      57  H20      -18.9280  -47.8680    7.2150 H         5 T5          0.0646
      58  H21      -16.8420  -47.4000    8.3840 H         5 T5          0.0591
      59  H22      -16.6990  -46.8300    6.6790 H         5 T5          0.0591
      60  H23      -20.8690  -41.5860   11.9640 H         5 T5          0.0280
      61  H24      -19.6180  -41.9230   10.7180 H         5 T5          0.0280
      62  H25      -19.4960  -42.6910   12.3350 H         5 T5          0.0280
      63  P2       -20.7500  -45.9530    4.2250 P.3       6 G6          0.2130
      64  O13      -20.4130  -46.5380    2.9230 O.2       6 G6         -0.5172
      65  O14      -20.7420  -44.4660    4.2810 O.co2     6 G6         -0.4373
      66  C21      -22.4720  -47.7780    4.9670 C.3       6 G6          0.0836
      67  O15      -22.2080  -46.3930    4.6210 O.3       6 G6         -0.3248
      68  C22      -23.9300  -48.0010    5.3980 C.3       6 G6          0.1114
      69  O16      -24.1500  -47.3870    6.7040 O.3       6 G6         -0.3484
      70  C23      -24.9750  -47.3650    4.4510 C.3       6 G6          0.0983
      71  O17      -26.0750  -48.2310    4.1610 O.3       6 G6         -0.3213
      72  C24      -25.4290  -46.1360    5.2180 C.3       6 G6          0.0220
      73  C25      -25.3290  -46.5940    6.6580 C.3       6 G6          0.1408
      74  N5       -27.2600  -44.3770   10.7440 N.ar      6 G6         -0.2934
      75  C26      -27.6640  -45.4980   10.0920 C.ar      6 G6          0.1950
      76  N6       -28.7330  -46.1040   10.5360 N.pl3     6 G6         -0.3289
      77  N7       -27.0600  -45.9810    9.0230 N.ar      6 G6         -0.1963
      78  C27      -25.9970  -45.2430    8.6620 C.ar      6 G6          0.1711
      79  C28      -25.5040  -44.1020    9.2380 C.ar      6 G6          0.1721
      80  C29      -26.1430  -43.5980   10.4170 C.ar      6 G6          0.2803
      81  O18      -25.7910  -42.6130   11.0390 O.2       6 G6         -0.2654
      82  N8       -24.3940  -43.6060    8.5330 N.ar      6 G6         -0.2286
      83  C30      -24.2500  -44.4930    7.5620 C.ar      6 G6          0.1004
      84  N9       -25.1880  -45.4970    7.5980 N.ar      6 G6         -0.2878
      85  H26      -27.7630  -44.1050   11.5800 H         6 G6          0.1716
      86  H27      -29.2940  -45.7330   11.2840 H         6 G6          0.1451
      87  H28      -29.1130  -46.7800    9.9160 H         6 G6          0.1451
      88  H29      -23.4770  -44.4850    6.7870 H         6 G6          0.1030
      89  H30      -26.1860  -47.2640    6.9100 H         6 G6          0.0840
      90  H31      -24.7090  -45.3170    5.0260 H         6 G6          0.0335
      91  H32      -26.4490  -45.7980    4.9760 H         6 G6          0.0335
      92  H33      -24.4470  -47.0770    3.5130 H         6 G6          0.0628
      93  H34      -24.1470  -49.0840    5.4990 H         6 G6          0.0646
      94  H35      -21.8200  -48.1150    5.8090 H         6 G6          0.0591
      95  H36      -22.2740  -48.4400    4.0900 H         6 G6          0.0591
      96  P3       -27.1860  -47.7740    3.1290 P.3       7 T7          0.2130
      97  O19      -27.4080  -48.8770    2.1740 O.2       7 T7         -0.5172
      98  O20      -26.8430  -46.4360    2.5830 O.co2     7 T7         -0.4373
      99  C31      -28.8600  -48.7020    4.9170 C.3       7 T7          0.0836
     100  O21      -28.4570  -47.6080    4.0570 O.3       7 T7         -0.3248
     101  C32      -30.0860  -48.3630    5.7870 C.3       7 T7          0.1114
     102  O22      -29.7750  -47.3020    6.7470 O.3       7 T7         -0.3483
     103  C33      -31.2900  -47.8630    4.9710 C.3       7 T7          0.0983
     104  O23      -32.5220  -48.4140    5.4390 O.3       7 T7         -0.3213
     105  C34      -31.2330  -46.3560    5.1400 C.3       7 T7          0.0221
     106  C35      -30.6310  -46.1830    6.5350 C.3       7 T7          0.1422
     107  N10      -29.8080  -44.9830    6.6980 N.ar      7 T7         -0.2737
     108  C36      -29.9440  -44.2180    7.8280 C.ar      7 T7          0.3313
     109  O24      -30.7330  -44.4710    8.7270 O.2       7 T7         -0.2464
     110  N11      -29.1110  -43.1450    7.8870 N.ar      7 T7         -0.2747
     111  C37      -28.1760  -42.7430    6.9620 C.ar      7 T7          0.2568
     112  O25      -27.4610  -41.7830    7.1950 O.2       7 T7         -0.2674
     113  C38      -28.1260  -43.5660    5.7750 C.ar      7 T7          0.0302
     114  C39      -27.1360  -43.1900    4.7150 C.3       7 T7         -0.0332
     115  C40      -28.8910  -44.6540    5.7220 C.ar      7 T7          0.0199
     116  H37      -29.2110  -42.5870    8.7300 H         7 T7          0.1734
     117  H38      -28.7490  -45.4310    4.9590 H         7 T7          0.0816
     118  H39      -31.4590  -46.2670    7.2840 H         7 T7          0.0840
     119  H40      -30.5700  -45.9570    4.3480 H         7 T7          0.0335
     120  H41      -32.2070  -45.8520    5.0450 H         7 T7          0.0335
     121  H42      -31.1160  -48.1400    3.9030 H         7 T7          0.0628
     122  H43      -30.4030  -49.2610    6.3570 H         7 T7          0.0646
     123  H44      -28.0340  -48.9930    5.6070 H         7 T7          0.0591
     124  H45      -29.1290  -49.5920    4.2990 H         7 T7          0.0591
     125  H46      -26.0980  -43.3580    5.0770 H         7 T7          0.0280
     126  H47      -27.2340  -42.1170    4.4430 H         7 T7          0.0280
     127  H48      -27.2820  -43.7950    3.7910 H         7 T7          0.0280
     128  P4       -33.8850  -48.0860    4.7150 P.3       8 G8          0.2130
     129  O26      -34.6900  -49.3230    4.6690 O.3       8 G8         -0.4373
     130  O27      -33.6270  -47.3920    3.4360 O.co2     8 G8         -0.5172
     131  C41      -34.7840  -47.4990    7.0880 C.3       8 G8          0.0836
     132  O28      -34.5690  -47.0620    5.7190 O.3       8 G8         -0.3248
     133  C42      -35.3850  -46.3980    7.9810 C.3       8 G8          0.1114
     134  O29      -34.3850  -45.3590    8.2200 O.3       8 G8         -0.3484
     135  C43      -36.6010  -45.6890    7.3380 C.3       8 G8          0.0983
     136  O30      -37.7490  -45.5360    8.1610 O.3       8 G8         -0.3213
     137  C44      -36.0530  -44.3490    6.8780 C.3       8 G8          0.0220
     138  C45      -34.8770  -44.0790    7.8260 C.3       8 G8          0.1408
     139  N12      -31.6780  -40.1410    8.2030 N.ar      8 G8         -0.2934
     140  C46      -32.6520  -40.5570    9.0690 C.ar      8 G8          0.1950
     141  N13      -32.8610  -39.8120   10.1140 N.pl3     8 G8         -0.3289
     142  N14      -33.3920  -41.6230    8.8730 N.ar      8 G8         -0.1963
     143  C47      -33.1220  -42.2450    7.7180 C.ar      8 G8          0.1711
     144  C48      -32.1760  -41.9070    6.7710 C.ar      8 G8          0.1721
     145  C49      -31.3550  -40.7720    7.0170 C.ar      8 G8          0.2803
     146  O31      -30.4440  -40.3330    6.2910 O.2       8 G8         -0.2654
     147  N15      -32.2300  -42.7810    5.6890 N.ar      8 G8         -0.2286
     148  C50      -33.1910  -43.6190    6.0060 C.ar      8 G8          0.1004
     149  N16      -33.7710  -43.3410    7.2190 N.ar      8 G8         -0.2878
     150  H49      -31.1250  -39.3460    8.4730 H         8 G8          0.1716
     151  H50      -32.2630  -39.0630   10.4090 H         8 G8          0.1451
     152  H51      -33.6010  -40.1240   10.7020 H         8 G8          0.1451
     153  H52      -33.5290  -44.4680    5.4070 H         8 G8          0.1030
     154  H53      -35.2330  -43.5790    8.7540 H         8 G8          0.0840
     155  H54      -35.6960  -44.4680    5.8330 H         8 G8          0.0335
     156  H55      -36.8140  -43.5450    6.9240 H         8 G8          0.0335
     157  H56      -36.8930  -46.2980    6.4520 H         8 G8          0.0628
     158  H57      -35.6740  -46.8330    8.9610 H         8 G8          0.0646
     159  H58      -33.8290  -47.8280    7.5630 H         8 G8          0.0591
     160  H59      -35.4920  -48.3620    7.1020 H         8 G8          0.0591
     161  P5       -37.9490  -44.9900    9.6160 P.3       9 A9          0.2130
     162  O32      -36.9880  -45.6200   10.5460 O.3       9 A9         -0.4373
     163  O33      -39.3760  -45.1430    9.9610 O.co2     9 A9         -0.5172
     164  C51      -37.1780  -42.7540   10.6910 C.3       9 A9          0.0836
     165  O34      -37.6300  -43.4310    9.4870 O.3       9 A9         -0.3248
     166  C52      -37.3320  -41.2210   10.6320 C.3       9 A9          0.1114
     167  O35      -36.2770  -40.6000    9.8330 O.3       9 A9         -0.3484
     168  C53      -38.6600  -40.7170   10.0380 C.3       9 A9          0.0983
     169  O36      -39.3160  -39.8000   10.9190 O.3       9 A9         -0.3213
     170  C54      -38.2460  -40.0630    8.7180 C.3       9 A9          0.0220
     171  C55      -36.8300  -39.5750    9.0140 C.3       9 A9          0.1408
     172  N17      -32.9900  -37.0110    6.6880 N.ar      9 A9         -0.2188
     173  C56      -33.6960  -36.7500    7.7930 C.ar      9 A9          0.1205
     174  N18      -34.7000  -37.4370    8.3280 N.ar      9 A9         -0.2159
     175  C57      -35.0080  -38.5190    7.5890 C.ar      9 A9          0.1673
     176  C58      -34.4080  -38.9030    6.4030 C.ar      9 A9          0.1473
     177  C59      -33.3250  -38.1050    5.9600 C.ar      9 A9          0.1472
     178  N19      -32.5820  -38.3630    4.8750 N.pl3     9 A9         -0.3413
     179  N20      -34.9630  -40.0920    5.9290 N.ar      9 A9         -0.2306
     180  C60      -35.8680  -40.3890    6.8340 C.ar      9 A9          0.1003
     181  N21      -35.9590  -39.4720    7.8500 N.ar      9 A9         -0.2879
     182  H60      -33.3920  -35.8540    8.3480 H         9 A9          0.1048
     183  H61      -31.8250  -37.7500    4.6380 H         9 A9          0.1438
     184  H62      -32.8640  -39.0620    4.2220 H         9 A9          0.1438
     185  H63      -36.4980  -41.2810    6.8250 H         9 A9          0.1030
     186  H64      -36.8560  -38.6330    9.6130 H         9 A9          0.0840
     187  H65      -38.2440  -40.8540    7.9380 H         9 A9          0.0335
     188  H66      -38.9070  -39.2370    8.3950 H         9 A9          0.0335
     189  H67      -39.3050  -41.6060    9.8400 H         9 A9          0.0628
     190  H68      -37.2290  -40.8020   11.6550 H         9 A9          0.0646
     191  H69      -36.1130  -43.0090   10.9000 H         9 A9          0.0591
     192  H70      -37.7840  -43.0780   11.5740 H         9 A9          0.0591
     193  P6       -40.7640  -39.2690   10.5850 P.3      10 G10         0.2130
     194  O37      -41.4970  -39.0700   11.8560 O.3      10 G10        -0.4373
     195  O38      -41.3750  -40.1230    9.5430 O.co2    10 G10        -0.5172
     196  C61      -39.6610  -36.8940   10.7070 C.3      10 G10         0.0836
     197  O39      -40.4290  -37.8600    9.9490 O.3      10 G10        -0.3248
     198  C62      -39.1580  -35.7360    9.8290 C.3      10 G10         0.1114
     199  O40      -38.2240  -36.2270    8.8280 O.3      10 G10        -0.3484
     200  C63      -40.2570  -35.0530    8.9820 C.3      10 G10         0.0983
     201  O41      -40.4960  -33.7110    9.4200 O.3      10 G10        -0.3213
     202  C64      -39.6960  -35.0810    7.5520 C.3      10 G10         0.0220
     203  C65      -38.2060  -35.2560    7.8000 C.3      10 G10         0.1408
     204  N22      -34.3760  -34.7110    4.4920 N.ar     10 G10        -0.2934
     205  C66      -34.7420  -33.9020    5.5240 C.ar     10 G10         0.1950
     206  N23      -34.0090  -32.8300    5.7020 N.pl3    10 G10        -0.3289
     207  N24      -35.7700  -34.1370    6.3210 N.ar     10 G10        -0.1963
     208  C67      -36.3960  -35.2850    6.0150 C.ar     10 G10         0.1711
     209  C68      -36.1150  -36.1740    4.9900 C.ar     10 G10         0.1721
     210  C69      -35.0020  -35.8940    4.1430 C.ar     10 G10         0.2803
     211  O42      -34.5810  -36.5680    3.1940 O.2      10 G10        -0.2654
     212  N25      -37.0150  -37.2420    5.0030 N.ar     10 G10        -0.2286
     213  C70      -37.8000  -36.9830    6.0210 C.ar     10 G10         0.1004
     214  N26      -37.4830  -35.8120    6.6620 N.ar     10 G10        -0.2878
     215  H71      -33.5690  -34.4700    3.9410 H        10 G10         0.1716
     216  H72      -33.2360  -32.6090    5.1080 H        10 G10         0.1451
     217  H73      -34.2330  -32.2680    6.4890 H        10 G10         0.1451
     218  H74      -38.6160  -37.6130    6.3810 H        10 G10         0.1030
     219  H75      -37.7430  -34.3210    8.1960 H        10 G10         0.0840
     220  H76      -40.1340  -35.9550    7.0250 H        10 G10         0.0335
     221  H77      -39.9040  -34.1610    6.9750 H        10 G10         0.0335
     222  H78      -41.1790  -35.6780    9.0510 H        10 G10         0.0628
     223  H79      -38.6380  -34.9670   10.4370 H        10 G10         0.0646
     224  H80      -38.7690  -37.3560   11.1980 H        10 G10         0.0591
     225  H81      -40.3070  -36.4620   11.5060 H        10 G10         0.0591
     226  P7       -41.7420  -32.9410    8.8080 P.3      11 C11         0.2130
     227  O43      -42.4580  -32.2830    9.9220 O.3      11 C11        -0.4373
     228  O44      -42.4900  -33.8580    7.9180 O.co2    11 C11        -0.5172
     229  C71      -40.4760  -30.6840    8.6020 C.3      11 C11         0.0836
     230  O45      -41.0020  -31.8480    7.9260 O.3      11 C11        -0.3248
     231  C72      -39.7340  -29.7410    7.6430 C.3      11 C11         0.1114
     232  O46      -38.5170  -30.3740    7.1550 O.3      11 C11        -0.3483
     233  C73      -40.5130  -29.3440    6.3690 C.3      11 C11         0.0983
     234  O47      -41.3030  -28.1650    6.5840 O.3      11 C11        -0.3213
     235  C74      -39.3880  -29.0250    5.4020 C.3      11 C11         0.0221
     236  C75      -38.2790  -30.0240    5.7860 C.3      11 C11         0.1423
     237  N27      -38.2040  -31.2640    4.9660 N.ar     11 C11        -0.2725
     238  C76      -37.1550  -31.4810    4.0720 C.ar     11 C11         0.3521
     239  O48      -36.2610  -30.6330    3.9460 O.2      11 C11        -0.2444
     240  N28      -37.1200  -32.6200    3.3390 N.ar     11 C11        -0.1783
     241  C77      -38.1190  -33.5050    3.4310 C.ar     11 C11         0.1230
     242  N29      -38.0500  -34.5980    2.6800 N.pl3    11 C11        -0.3430
     243  C78      -39.2270  -33.2920    4.3000 C.ar     11 C11        -0.0056
     244  C79      -39.2330  -32.1710    5.0410 C.ar     11 C11         0.0151
     245  H82      -37.2430  -34.6860    2.0820 H        11 C11         0.1437
     246  H83      -38.8280  -35.1910    2.5240 H        11 C11         0.1437
     247  H84      -40.0250  -34.0280    4.3530 H        11 C11         0.0666
     248  H85      -40.0140  -31.9530    5.7760 H        11 C11         0.0812
     249  H86      -37.3030  -29.4860    5.7710 H        11 C11         0.0840
     250  H87      -39.7050  -29.1270    4.3450 H        11 C11         0.0335
     251  H88      -38.9980  -27.9970    5.5750 H        11 C11         0.0335
     252  H89      -41.0890  -30.2350    6.0240 H        11 C11         0.0628
     253  H90      -39.4160  -28.8210    8.1730 H        11 C11         0.0646
     254  H91      -39.7700  -30.9910    9.4100 H        11 C11         0.0591
     255  H92      -41.3170  -30.1150    9.0630 H        11 C11         0.0591
     256  P8       -42.8840  -28.2560    6.6210 P.3      12 G12         0.2130
     257  O49      -43.2100  -27.4710    7.8400 O.3      12 G12        -0.4373
     258  O50      -43.3740  -29.6270    6.5060 O.co2    12 G12        -0.5172
     259  C80      -43.0900  -26.0660    5.1450 C.3      12 G12         0.0836
     260  O51      -43.3240  -27.4670    5.3550 O.3      12 G12        -0.3248
     261  C81      -43.1050  -25.7110    3.6480 C.3      12 G12         0.1114
     262  O52      -42.1210  -26.5040    2.9100 O.3      12 G12        -0.3484
     263  C82      -44.4640  -25.9970    2.9870 C.3      12 G12         0.0983
     264  O53      -44.8370  -24.9710    2.0590 O.3      12 G12        -0.3213
     265  C83      -44.2520  -27.3600    2.3340 C.3      12 G12         0.0220
     266  C84      -42.7750  -27.3220    1.9360 C.3      12 G12         0.1408
     267  N30      -39.7160  -30.4630   -0.6990 N.ar     12 G12        -0.2934
     268  C85      -40.1370  -29.1960   -1.0140 C.ar     12 G12         0.1950
     269  N31      -39.7170  -28.6990   -2.1490 N.pl3    12 G12        -0.3289
     270  N32      -40.9160  -28.4670   -0.2360 N.ar     12 G12        -0.1963
     271  C86      -41.2680  -29.1050    0.8980 C.ar     12 G12         0.1711
     272  C87      -40.9050  -30.3740    1.3060 C.ar     12 G12         0.1721
     273  C88      -40.0540  -31.1460    0.4590 C.ar     12 G12         0.2803
     274  O54      -39.6260  -32.2880    0.6730 O.2      12 G12        -0.2654
     275  N33      -41.4860  -30.6790    2.5380 N.ar     12 G12        -0.2286
     276  C89      -42.1680  -29.5990    2.8560 C.ar     12 G12         0.1004
     277  N34      -42.0960  -28.6210    1.8890 N.ar     12 G12        -0.2878
     278  H93      -39.1620  -30.9700   -1.3650 H        12 G12         0.1716
     279  H94      -39.2350  -29.2460   -2.8390 H        12 G12         0.1451
     280  H95      -40.0450  -27.7800   -2.3600 H        12 G12         0.1451
     281  H96      -42.7360  -29.4450    3.7810 H        12 G12         0.1030
     282  H97      -42.7100  -26.7950    0.9620 H        12 G12         0.0840
     283  H98      -44.4140  -28.1340    3.1140 H        12 G12         0.0335
     284  H99      -44.9130  -27.5760    1.4800 H        12 G12         0.0335
     285 H100      -45.2230  -26.0730    3.8030 H        12 G12         0.0628
     286 H101      -42.8640  -24.6370    3.5100 H        12 G12         0.0646
     287 H102      -42.1050  -25.7470    5.5560 H        12 G12         0.0591
     288 H103      -43.8980  -25.4800    5.6440 H        12 G12         0.0591
     289  P9       -46.1790  -25.0520    1.2560 P.3      13 C13         0.2130
     290  O55      -46.6900  -23.6800    1.0230 O.2      13 C13        -0.5172
     291  O56      -47.0970  -26.0290    1.8780 O.co2    13 C13        -0.4373
     292  C90      -44.8980  -24.6940   -0.9230 C.3      13 C13         0.0836
     293  O57      -45.7050  -25.6150   -0.1360 O.3      13 C13        -0.3248
     294  C91      -44.3280  -25.3450   -2.1780 C.3      13 C13         0.1114
     295  O58      -43.5670  -26.5450   -1.8520 O.3      13 C13        -0.3483
     296  C92      -45.4110  -25.7600   -3.1930 C.3      13 C13         0.0983
     297  O59      -45.2210  -25.1080   -4.4520 O.3      13 C13        -0.3213
     298  C93      -45.2790  -27.2820   -3.2740 C.3      13 C13         0.0221
     299  C94      -43.8530  -27.5610   -2.8050 C.3      13 C13         0.1423
     300  N35      -43.6860  -28.8770   -2.1560 N.ar     13 C13        -0.2725
     301  C95      -43.0210  -29.9090   -2.7980 C.ar     13 C13         0.3521
     302  O60      -42.5550  -29.7210   -3.9350 O.2      13 C13        -0.2444
     303  N36      -42.8780  -31.0980   -2.1940 N.ar     13 C13        -0.1783
     304  C96      -43.4310  -31.3180   -0.9940 C.ar     13 C13         0.1230
     305  N37      -43.2270  -32.5040   -0.4410 N.pl3    13 C13        -0.3430
     306  C97      -44.1840  -30.3060   -0.3330 C.ar     13 C13        -0.0056
     307  C98      -44.2980  -29.1140   -0.9450 C.ar     13 C13         0.0151
     308 H104      -42.6700  -33.1670   -0.9520 H        13 C13         0.1437
     309 H105      -43.5520  -32.7420    0.4670 H        13 C13         0.1437
     310 H106      -44.6340  -30.5220    0.6330 H        13 C13         0.0666
     311 H107      -44.8150  -28.2520   -0.5130 H        13 C13         0.0812
     312 H108      -43.1430  -27.3970   -3.6510 H        13 C13         0.0840
     313 H109      -46.0250  -27.7360   -2.5870 H        13 C13         0.0335
     314 H110      -45.4270  -27.6890   -4.2910 H        13 C13         0.0335
     315 H111      -46.4000  -25.4880   -2.7500 H        13 C13         0.0628
     316 H112      -43.6250  -24.6500   -2.6810 H        13 C13         0.0646
     317 H113      -44.0310  -24.3040   -0.3370 H        13 C13         0.0591
     318 H114      -45.5100  -23.8200   -1.2570 H        13 C13         0.0591
     319  P10      -46.1830  -25.3400   -5.6740 P.3      14 T14         0.2130
     320  O61      -46.3130  -24.0640   -6.4180 O.2      14 T14        -0.5172
     321  O62      -47.4420  -26.0190   -5.2920 O.co2    14 T14        -0.4373
     322  C99      -43.9410  -25.9650   -6.8400 C.3      14 T14         0.0836
     323  O63      -45.3240  -26.3080   -6.5580 O.3      14 T14        -0.3248
     324 C100      -43.3490  -26.8370   -7.9520 C.3      14 T14         0.1114
     325  O64      -43.1460  -28.1970   -7.4760 O.3      14 T14        -0.3483
     326 C101      -44.2750  -26.9420   -9.1670 C.3      14 T14         0.0983
     327  O65      -43.5560  -26.8190  -10.3910 O.3      14 T14        -0.3213
     328 C102      -44.9310  -28.3080   -9.0120 C.3      14 T14         0.0221
     329 C103      -43.8780  -29.1260   -8.2640 C.3      14 T14         0.1422
     330  N38      -44.4230  -30.1210   -7.3250 N.ar     14 T14        -0.2737
     331 C104      -43.9680  -31.4130   -7.3630 C.ar     14 T14         0.3313
     332  O66      -43.1380  -31.8190   -8.1700 O.2      14 T14        -0.2464
     333  N39      -44.5210  -32.2390   -6.4180 N.ar     14 T14        -0.2747
     334 C105      -45.3910  -31.8820   -5.4240 C.ar     14 T14         0.2568
     335  O67      -45.7050  -32.7170   -4.5600 O.2      14 T14        -0.2674
     336 C106      -45.8750  -30.5340   -5.4680 C.ar     14 T14         0.0302
     337 C107      -46.8620  -30.0830   -4.4420 C.3      14 T14        -0.0332
     338 C108      -45.3260  -29.7050   -6.3760 C.ar     14 T14         0.0199
     339 H115      -44.1420  -33.1780   -6.3970 H        14 T14         0.1734
     340 H116      -45.4950  -28.6270   -6.3490 H        14 T14         0.0816
     341 H117      -43.1560  -29.5490   -9.0050 H        14 T14         0.0840
     342 H118      -45.8520  -28.1780   -8.4100 H        14 T14         0.0335
     343 H119      -45.1990  -28.7740   -9.9720 H        14 T14         0.0335
     344 H120      -45.0380  -26.1340   -9.0800 H        14 T14         0.0628
     345 H121      -42.3640  -26.4380   -8.2800 H        14 T14         0.0646
     346 H122      -43.3060  -26.0820   -5.9300 H        14 T14         0.0591
     347 H123      -43.8600  -24.9080   -7.1900 H        14 T14         0.0591
     348 H124      -47.2990  -29.0920   -4.7060 H        14 T14         0.0280
     349 H125      -46.3850  -29.9930   -3.4400 H        14 T14         0.0280
     350 H126      -47.7040  -30.8070   -4.3600 H        14 T14         0.0280
     351  P11      -44.3330  -26.7520  -11.7570 P.3      15 C15         0.2130
     352  O68      -43.6250  -25.7650  -12.5990 O.2      15 C15        -0.5172
     353  O69      -45.7550  -26.4430  -11.4630 O.co2    15 C15        -0.4373
     354 C109      -42.8290  -28.7960  -12.3980 C.3      15 C15         0.0836
     355  O70      -44.1730  -28.2360  -12.3250 O.3      15 C15        -0.3248
     356 C110      -42.7630  -30.2450  -12.9380 C.3      15 C15         0.1114
     357  O71      -43.1530  -31.1920  -11.8970 O.3      15 C15        -0.3483
     358 C111      -43.6760  -30.5390  -14.1440 C.3      15 C15         0.0983
     359  O72      -43.0360  -31.3360  -15.1480 O.3      15 C15        -0.3213
     360 C112      -44.8520  -31.2670  -13.5210 C.3      15 C15         0.0221
     361 C113      -44.2090  -32.0340  -12.3550 C.3      15 C15         0.1423
     362  N40      -45.0910  -32.2800  -11.1990 N.ar     15 C15        -0.2725
     363 C114      -45.1480  -33.5020  -10.5210 C.ar     15 C15         0.3521
     364  O73      -44.4440  -34.4480  -10.8940 O.2      15 C15        -0.2444
     365  N41      -46.0030  -33.6460   -9.4780 N.ar     15 C15        -0.1783
     366 C115      -46.7120  -32.6010   -9.0530 C.ar     15 C15         0.1230
     367  N42      -47.5250  -32.7840   -8.0240 N.pl3    15 C15        -0.3430
     368 C116      -46.6210  -31.3220   -9.6720 C.ar     15 C15        -0.0056
     369 C117      -45.7900  -31.2060  -10.7200 C.ar     15 C15         0.0151
     370 H127      -47.5390  -33.6870   -7.5940 H        15 C15         0.1437
     371 H128      -47.9900  -32.0200   -7.5690 H        15 C15         0.1437
     372 H129      -47.1800  -30.4870   -9.2600 H        15 C15         0.0666
     373 H130      -45.5980  -30.2530  -11.2300 H        15 C15         0.0812
     374 H131      -43.7400  -32.9690  -12.7460 H        15 C15         0.0840
     375 H132      -45.5680  -30.5000  -13.1730 H        15 C15         0.0335
     376 H133      -45.3830  -31.9320  -14.2190 H        15 C15         0.0335
     377 H134      -43.9990  -29.5570  -14.5650 H        15 C15         0.0628
     378 H135      -41.7180  -30.4900  -13.2230 H        15 C15         0.0646
     379 H136      -42.3370  -28.7990  -11.3950 H        15 C15         0.0591
     380 H137      -42.2030  -28.1740  -13.0780 H        15 C15         0.0591
     381  P12      -43.7680  -31.6270  -16.5210 P.3      16 A16         0.2130
     382  O74      -42.7650  -31.5660  -17.6080 O.2      16 A16        -0.5172
     383  O75      -44.9580  -30.7550  -16.6390 O.co2    16 A16        -0.4373
     384 C118      -43.2730  -34.1980  -16.5790 C.3      16 A16         0.0836
     385  O76      -44.2400  -33.1360  -16.3400 O.3      16 A16        -0.3248
     386 C119      -43.6250  -35.5350  -15.8950 C.3      16 A16         0.1114
     387  O77      -43.9010  -35.3420  -14.4740 O.3      16 A16        -0.3484
     388 C120      -44.8650  -36.2560  -16.4520 C.3      16 A16         0.0983
     389  O78      -44.4950  -37.1130  -17.5420 O.3      16 A16        -0.3213
     390 C121      -45.2680  -37.0840  -15.2500 C.3      16 A16         0.0220
     391 C122      -44.9620  -36.1920  -14.0610 C.3      16 A16         0.1408
     392  N43      -48.6480  -35.7630  -10.5850 N.ar     16 A16        -0.2188
     393 C123      -47.7880  -36.7480  -10.8700 C.ar     16 A16         0.1205
     394  N44      -46.8310  -36.7710  -11.7910 N.ar     16 A16        -0.2159
     395 C124      -46.8640  -35.6620  -12.5530 C.ar     16 A16         0.1673
     396 C125      -47.7450  -34.6060  -12.4450 C.ar     16 A16         0.1473
     397 C126      -48.6420  -34.6590  -11.3580 C.ar     16 A16         0.1472
     398  N45      -49.4820  -33.6770  -11.0060 N.pl3    16 A16        -0.3413
     399  N46      -47.5490  -33.6740  -13.4610 N.ar     16 A16        -0.2306
     400 C127      -46.5290  -34.1810  -14.1350 C.ar     16 A16         0.1003
     401  N47      -46.0700  -35.3700  -13.6180 N.ar     16 A16        -0.2879
     402 H138      -47.8330  -37.6300  -10.2190 H        16 A16         0.1048
     403 H139      -50.0830  -33.8630  -10.2240 H        16 A16         0.1438
     404 H140      -49.3500  -32.7530  -11.3340 H        16 A16         0.1438
     405 H141      -46.0570  -33.7300  -15.0110 H        16 A16         0.1030
     406 H142      -44.5860  -36.8150  -13.2140 H        16 A16         0.0840
     407 H143      -46.3160  -37.4160  -15.2940 H        16 A16         0.0335
     408 H144      -44.6230  -37.9840  -15.1680 H        16 A16         0.0335
     409 H145      -45.6140  -35.4780  -16.7290 H        16 A16         0.0628
     410 H146      -42.7730  -36.2430  -15.9670 H        16 A16         0.0646
     411 H147      -42.2580  -33.9130  -16.2100 H        16 A16         0.0591
     412 H148      -43.1920  -34.3890  -17.6740 H        16 A16         0.0591
     413  P13      -45.6400  -37.7300  -18.4500 P.3      17 C17         0.2130
     414  O79      -45.0410  -38.2520  -19.6950 O.2      17 C17        -0.5172
     415  O80      -46.7390  -36.7440  -18.5540 O.co2    17 C17        -0.4373
     416 C128      -45.3930  -39.9670  -17.0300 C.3      17 C17         0.0836
     417  O81      -46.2150  -38.9380  -17.6150 O.3      17 C17        -0.3248
     418 C129      -46.1690  -40.7950  -15.9840 C.3      17 C17         0.1114
     419  O82      -46.7840  -39.9280  -14.9660 O.3      17 C17        -0.3483
     420 C130      -47.3250  -41.5670  -16.6570 C.3      17 C17         0.0983
     421  O83      -47.3840  -42.9650  -16.4080 O.3      17 C17        -0.3213
     422 C131      -48.5800  -40.8350  -16.2040 C.3      17 C17         0.0221
     423 C132      -48.1930  -40.1640  -14.8760 C.3      17 C17         0.1423
     424  N48      -48.8590  -38.8630  -14.6370 N.ar     17 C17        -0.2725
     425 C133      -49.6370  -38.6060  -13.5010 C.ar     17 C17         0.3521
     426  O84      -49.7950  -39.4890  -12.6480 O.2      17 C17        -0.2444
     427  N49      -50.2240  -37.3930  -13.3490 N.ar     17 C17        -0.1783
     428 C134      -50.0560  -36.4580  -14.2850 C.ar     17 C17         0.1230
     429  N50      -50.6080  -35.2680  -14.0740 N.pl3    17 C17        -0.3430
     430 C135      -49.2920  -36.6890  -15.4630 C.ar     17 C17        -0.0056
     431 C136      -48.7250  -37.8980  -15.6030 C.ar     17 C17         0.0151
     432 H149      -51.1820  -35.1770  -13.2600 H        17 C17         0.1437
     433 H150      -50.3900  -34.4910  -14.6540 H        17 C17         0.1437
     434 H151      -49.1610  -35.9010  -16.1990 H        17 C17         0.0666
     435 H152      -48.0770  -38.1510  -16.4550 H        17 C17         0.0812
     436 H153      -48.3300  -40.8790  -14.0340 H        17 C17         0.0840
     437 H154      -48.8420  -40.0830  -16.9740 H        17 C17         0.0335
     438 H155      -49.4260  -41.5270  -16.0480 H        17 C17         0.0335
     439 H156      -47.2080  -41.4210  -17.7550 H        17 C17         0.0628
     440 H157      -45.4870  -41.5060  -15.4750 H        17 C17         0.0646
     441 H158      -44.4920  -39.5430  -16.5330 H        17 C17         0.0591
     442 H159      -45.0360  -40.6570  -17.8290 H        17 C17         0.0591
     443  P14      -47.3230  -43.8270  -15.0990 P.3      18 A18         0.2130
     444  O85      -46.0850  -43.5340  -14.3440 O.3      18 A18        -0.4373
     445  O86      -47.5310  -45.2380  -15.4900 O.co2    18 A18        -0.5172
     446 C137      -49.6820  -44.1440  -13.8620 C.3      18 A18         0.0836
     447  O87      -48.5820  -43.3240  -14.2970 O.3      18 A18        -0.3248
     448 C138      -51.0660  -43.6670  -14.3610 C.3      18 A18         0.1114
     449  O88      -51.2320  -42.2240  -14.2970 O.3      18 A18        -0.3484
     450 C139      -51.3420  -43.9710  -15.8530 C.3      18 A18         0.0983
     451  O89      -52.1120  -45.1560  -16.0190 O.3      18 A18        -0.3213
     452 C140      -52.0090  -42.6760  -16.3620 C.3      18 A18         0.0220
     453 C141      -52.3810  -41.9540  -15.0590 C.3      18 A18         0.1408
     454  N51      -54.5440  -37.6110  -13.1960 N.ar     18 A18        -0.2188
     455 C142      -54.6000  -38.8830  -12.7800 C.ar     18 A18         0.1205
     456  N52      -54.0100  -39.9660  -13.2930 N.ar     18 A18        -0.2159
     457 C143      -53.2490  -39.6530  -14.3580 C.ar     18 A18         0.1673
     458 C144      -53.0910  -38.3960  -14.9130 C.ar     18 A18         0.1473
     459 C145      -53.7800  -37.3370  -14.2790 C.ar     18 A18         0.1472
     460  N53      -53.7560  -36.0780  -14.7440 N.pl3    18 A18        -0.3413
     461  N54      -52.2710  -38.4410  -16.0460 N.ar     18 A18        -0.2306
     462 C146      -51.9660  -39.7120  -16.1440 C.ar     18 A18         0.1003
     463  N55      -52.5260  -40.5050  -15.1710 N.ar     18 A18        -0.2879
     464 H160      -55.2260  -39.0640  -11.9000 H        18 A18         0.1048
     465 H161      -53.4680  -35.9150  -15.6830 H        18 A18         0.1438
     466 H162      -54.3720  -35.4100  -14.3240 H        18 A18         0.1438
     467 H163      -51.3160  -40.1300  -16.9160 H        18 A18         0.1030
     468 H164      -53.2510  -42.4300  -14.5540 H        18 A18         0.0840
     469 H165      -51.2410  -42.1250  -16.9360 H        18 A18         0.0335
     470 H166      -52.8810  -42.8010  -17.0210 H        18 A18         0.0335
     471 H167      -50.3490  -44.1010  -16.3430 H        18 A18         0.0628
     472 H168      -51.8640  -44.1330  -13.7550 H        18 A18         0.0646
     473 H169      -49.7040  -44.1130  -12.7520 H        18 A18         0.0591
     474 H170      -49.5640  -45.2140  -14.1580 H        18 A18         0.0591
     475  P15      -53.5610  -45.4330  -16.5330 P.3      19 A19         0.2130
     476  O90      -53.8730  -46.8680  -16.3670 O.3      19 A19        -0.4373
     477  O91      -53.7550  -44.8350  -17.8690 O.co2    19 A19        -0.5172
     478 C147      -54.6450  -45.0870  -14.1640 C.3      19 A19         0.0835
     479  O92      -54.4680  -44.6210  -15.5230 O.3      19 A19        -0.3248
     480 C148      -55.9370  -44.5450  -13.5400 C.3      19 A19         0.1107
     481  O93      -55.9550  -43.0850  -13.5530 O.3      19 A19        -0.3484
     482 C149      -57.1740  -44.9840  -14.3340 C.3      19 A19         0.0877
     483  O94      -58.2930  -45.3840  -13.5430 O.3      19 A19        -0.3890
     484 C150      -57.5290  -43.7790  -15.1740 C.3      19 A19         0.0213
     485 C151      -57.0650  -42.6090  -14.3040 C.3      19 A19         0.1408
     486  N56      -57.5110  -37.5400  -14.9510 N.ar     19 A19        -0.2188
     487 C152      -58.0020  -38.3730  -14.0270 C.ar     19 A19         0.1205
     488  N57      -57.8750  -39.7000  -13.9480 N.ar     19 A19        -0.2159
     489 C153      -57.0160  -40.1640  -14.8750 C.ar     19 A19         0.1673
     490 C154      -56.3810  -39.4300  -15.8570 C.ar     19 A19         0.1473
     491 C155      -56.6770  -38.0440  -15.8910 C.ar     19 A19         0.1472
     492  N58      -56.1870  -37.1920  -16.8010 N.pl3    19 A19        -0.3413
     493  N59      -55.5610  -40.2510  -16.6410 N.ar     19 A19        -0.2306
     494 C156      -55.7350  -41.4510  -16.1190 C.ar     19 A19         0.1003
     495  N60      -56.6190  -41.4590  -15.0650 N.ar     19 A19        -0.2879
     496 H171      -58.6610  -37.9100  -13.2780 H        19 A19         0.1048
     497 H172      -56.4520  -36.2240  -16.7530 H        19 A19         0.1438
     498 H173      -55.5950  -37.4970  -17.5370 H        19 A19         0.1438
     499 H174      -55.2390  -42.3690  -16.4520 H        19 A19         0.1030
     500 H175      -57.8530  -42.3380  -13.5620 H        19 A19         0.0840
     501 H176      -56.9450  -43.8300  -16.1200 H        19 A19         0.0335
     502 H177      -58.6060  -43.7040  -15.4130 H        19 A19         0.0335
     503 H178      -56.8540  -45.8270  -14.9920 H        19 A19         0.0621
     504 H179      -56.0430  -44.8900  -12.4910 H        19 A19         0.0646
     505 H180      -53.7920  -44.7550  -13.5350 H        19 A19         0.0591
     506 H181      -54.6920  -46.2030  -14.1080 H        19 A19         0.0591
     507 H182      -59.0710  -45.4390  -14.1010 H        19 A19         0.2099
@<TRIPOS>BOND
       1      414      413 2
       2      415      413 1
       3      413      417 1
       4      413      389 1
       5      477      475 2
       6      442      416 1
       7      439      420 1
       8      412      384 1
       9      417      416 1
      10      382      381 2
      11      389      388 1
      12      498      492 1
      13      416      441 1
      14      416      418 1
      15      470      452 1
      16      437      422 1
      17      469      452 1
      18      467      462 1
      19      492      497 1
      20      492      491 1
      21      409      388 1
      22      420      421 1
      23      420      422 1
      24      420      418 1
      25      493      494 ar
      26      493      490 ar
      27      383      381 1
      28      384      385 1
      29      384      411 1
      30      384      386 1
      31      475      476 1
      32      475      451 1
      33      475      479 1
      34      381      385 1
      35      381      359 1
      36      435      431 1
      37      388      386 1
      38      388      390 1
      39      499      494 1
      40      421      443 1
      41      452      450 1
      42      452      453 1
      43      471      450 1
      44      422      438 1
      45      422      423 1
      46      434      430 1
      47      462      461 ar
      48      462      463 ar
      49      501      484 1
      50      494      495 ar
      51      461      458 ar
      52      451      450 1
      53      418      440 1
      54      418      419 1
      55      410      386 1
      56      386      387 1
      57      491      490 ar
      58      491      486 ar
      59      490      489 ar
      60      450      448 1
      61      465      460 1
      62      431      430 ar
      63      431      424 ar
      64      479      478 1
      65      445      443 2
      66      430      428 ar
      67      502      484 1
      68      407      390 1
      69      390      408 1
      70      390      391 1
      71      484      482 1
      72      484      485 1
      73      463      453 1
      74      463      457 ar
      75      359      358 1
      76      443      444 1
      77      443      447 1
      78      495      489 ar
      79      495      485 1
      80      453      468 1
      81      453      449 1
      82      405      400 1
      83      503      482 1
      84      419      423 1
      85      486      487 ar
      86      458      457 ar
      87      458      459 ar
      88      423      424 1
      89      423      436 1
      90      489      488 ar
      91      460      466 1
      92      460      459 1
      93      433      429 1
      94      424      425 ar
      95      377      358 1
      96      387      391 1
      97      448      449 1
      98      448      446 1
      99      448      472 1
     100      457      456 ar
     101      482      483 1
     102      482      480 1
     103      485      500 1
     104      485      481 1
     105      447      446 1
     106      428      429 1
     107      428      427 ar
     108      459      454 ar
     109      376      360 1
     110      478      506 1
     111      478      480 1
     112      478      505 1
     113      474      446 1
     114      358      360 1
     115      358      356 1
     116      400      401 ar
     117      400      399 ar
     118      507      483 1
     119      429      432 1
     120      391      401 1
     121      391      406 1
     122      487      488 ar
     123      487      496 1
     124      446      473 1
     125      401      395 ar
     126      481      480 1
     127      480      504 1
     128      360      375 1
     129      360      361 1
     130      425      427 ar
     131      425      426 2
     132      399      396 ar
     133      456      455 ar
     134      378      356 1
     135      454      455 ar
     136      380      354 1
     137      356      354 1
     138      356      357 1
     139      455      464 1
     140      374      361 1
     141      352      351 2
     142      395      396 ar
     143      395      394 ar
     144      396      397 ar
     145      354      355 1
     146      354      379 1
     147      361      357 1
     148      361      362 1
     149      355      351 1
     150      394      393 ar
     151      351      353 1
     152      351      327 1
     153      397      398 1
     154      397      392 ar
     155      404      398 1
     156      373      369 1
     157      362      369 ar
     158      362      363 ar
     159      398      403 1
     160      364      363 2
     161      393      392 ar
     162      393      402 1
     163      369      368 ar
     164      363      365 ar
     165      327      326 1
     166      343      328 1
     167      368      372 1
     168      368      366 ar
     169      365      366 ar
     170      326      344 1
     171      326      328 1
     172      326      324 1
     173      366      367 1
     174      328      342 1
     175      328      329 1
     176      341      329 1
     177      345      324 1
     178      329      325 1
     179      329      330 1
     180      332      331 2
     181      367      370 1
     182      367      371 1
     183      324      325 1
     184      324      322 1
     185      331      330 ar
     186      331      333 ar
     187      330      338 ar
     188      347      322 1
     189      322      323 1
     190      322      346 1
     191      323      319 1
     192      333      339 1
     193      333      334 ar
     194      320      319 2
     195      338      340 1
     196      338      336 ar
     197      319      321 1
     198      319      297 1
     199      336      334 ar
     200      336      337 1
     201      334      335 2
     202      348      337 1
     203      297      296 1
     204      337      350 1
     205      337      349 1
     206      314      298 1
     207      302      301 2
     208      312      299 1
     209      298      296 1
     210      298      299 1
     211      298      313 1
     212      296      315 1
     213      296      294 1
     214      279      269 1
     215      299      300 1
     216      299      295 1
     217      301      303 ar
     218      301      300 ar
     219      316      294 1
     220      280      269 1
     221      303      304 ar
     222      294      295 1
     223      294      292 1
     224      300      307 ar
     225      269      268 1
     226      278      267 1
     227      318      292 1
     228      268      267 ar
     229      268      270 ar
     230      304      305 1
     231      304      306 ar
     232      308      305 1
     233      307      311 1
     234      307      306 ar
     235      292      317 1
     236      292      293 1
     237      267      273 ar
     238      305      309 1
     239      306      310 1
     240      270      271 ar
     241      293      289 1
     242      273      274 2
     243      273      272 ar
     244      271      272 ar
     245      271      277 ar
     246      282      266 1
     247      290      289 2
     248      289      291 1
     249      289      264 1
     250      272      275 ar
     251      284      265 1
     252      277      266 1
     253      277      276 ar
     254      266      265 1
     255      266      262 1
     256      264      263 1
     257      245      242 1
     258       97       96 2
     259      265      263 1
     260      265      283 1
     261      246      242 1
     262      275      276 ar
     263       98       96 1
     264      242      241 1
     265      276      281 1
     266      262      261 1
     267       64       63 2
     268      263      261 1
     269      263      285 1
     270       96      100 1
     271       96       71 1
     272      211      210 2
     273      240      241 ar
     274      240      238 ar
     275      241      243 ar
     276      130      128 2
     277      286      261 1
     278       92       70 1
     279      261      259 1
     280      127      114 1
     281      121      103 1
     282      215      204 1
     283      239      238 2
     284      100       99 1
     285      238      237 ar
     286       95       66 1
     287      210      204 ar
     288      210      209 ar
     289       71       70 1
     290      184      178 1
     291       63       65 1
     292       63       67 1
     293       63       39 1
     294      124       99 1
     295      243      247 1
     296      243      244 ar
     297      250      235 1
     298      119      105 1
     299      126      114 1
     300       70       72 1
     301       70       68 1
     302      204      205 ar
     303       67       66 1
     304      183      178 1
     305      129      128 1
     306      128      104 1
     307      128      132 1
     308      114      125 1
     309      114      113 1
     310      178      177 1
     311       99      123 1
     312       99      101 1
     313      117      115 1
     314      237      244 ar
     315      237      236 1
     316       66       68 1
     317       66       94 1
     318      103      105 1
     319      103      104 1
     320      103      101 1
     321       91       72 1
     322      209      212 ar
     323      209      208 ar
     324      212      213 ar
     325       90       72 1
     326      244      248 1
     327      120      105 1
     328      216      206 1
     329      105      106 1
     330      259      260 1
     331      259      287 1
     332      259      288 1
     333       72       73 1
     334       39       38 1
     335      260      256 1
     336       68       93 1
     337       68       69 1
     338      235      251 1
     339      235      236 1
     340      235      233 1
     341      153      148 1
     342      205      206 1
     343      205      207 ar
     344      147      148 ar
     345      147      144 ar
     346      206      217 1
     347      132      131 1
     348      115      113 ar
     349      115      107 ar
     350      249      236 1
     351      113      111 ar
     352      236      232 1
     353      101      122 1
     354      101      102 1
     355      155      137 1
     356      179      176 ar
     357      179      180 ar
     358      177      176 ar
     359      177      172 ar
     360      148      149 ar
     361      208      207 ar
     362      208      214 ar
     363      213      218 1
     364      213      214 ar
     365      252      233 1
     366       56       38 1
     367      146      145 2
     368      233      234 1
     369      233      231 1
     370      176      175 ar
     371      157      135 1
     372       38       40 1
     373       38       36 1
     374      258      256 2
     375      106      107 1
     376      106      102 1
     377      106      118 1
     378      234      256 1
     379      256      257 1
     380       73       69 1
     381       73       89 1
     382       73       84 1
     383      214      203 1
     384       59       34 1
     385      172      173 ar
     386      107      108 ar
     387       55       40 1
     388      144      145 ar
     389      144      143 ar
     390       88       83 1
     391      185      180 1
     392      180      181 ar
     393      137      156 1
     394      137      135 1
     395      137      138 1
     396      111      112 2
     397      111      110 ar
     398      221      202 1
     399      145      139 ar
     400      220      202 1
     401      131      160 1
     402      131      159 1
     403      131      133 1
     404      232      231 1
     405       57       36 1
     406      149      143 ar
     407      149      138 1
     408       40       54 1
     409       40       41 1
     410      135      133 1
     411      135      136 1
     412       36       34 1
     413       36       37 1
     414      202      203 1
     415      202      200 1
     416       83       84 ar
     417       83       82 ar
     418      175      181 ar
     419      175      174 ar
     420       84       78 ar
     421      231      253 1
     422      231      229 1
     423       34       35 1
     424       34       58 1
     425      143      142 ar
     426      173      174 ar
     427      173      182 1
     428      203      219 1
     429      203      199 1
     430      138      134 1
     431      138      154 1
     432      108      110 ar
     433      108      109 2
     434      181      171 1
     435      110      116 1
     436       32       31 2
     437      228      226 2
     438      230      229 1
     439      230      226 1
     440      187      170 1
     441      133      134 1
     442      133      158 1
     443       35       31 1
     444       53       41 1
     445      136      161 1
     446      139      150 1
     447      139      140 ar
     448      188      170 1
     449       41       37 1
     450       41       42 1
     451       82       79 ar
     452      229      255 1
     453      229      254 1
     454       78       77 ar
     455       78       79 ar
     456      170      171 1
     457      170      168 1
     458       31       33 1
     459       31        6 1
     460      226      201 1
     461      226      227 1
     462      199      198 1
     463      142      140 ar
     464      200      222 1
     465      200      201 1
     466      200      198 1
     467      171      186 1
     468      171      167 1
     469       77       75 ar
     470      140      141 1
     471       79       80 ar
     472      165      161 1
     473      165      164 1
     474      195      193 2
     475       52       50 1
     476      161      163 2
     477      161      162 1
     478       42       50 ar
     479       42       43 ar
     480      198      223 1
     481      198      196 1
     482      167      166 1
     483      189      168 1
     484       87       76 1
     485       44       43 2
     486      197      193 1
     487      197      196 1
     488      168      166 1
     489      168      169 1
     490       50       48 ar
     491       75       76 1
     492       75       74 ar
     493        6        5 1
     494      141      151 1
     495      141      152 1
     496       43       45 ar
     497       22        7 1
     498       80       74 ar
     499       80       81 2
     500       76       86 1
     501      193      169 1
     502      193      194 1
     503      166      164 1
     504      166      190 1
     505      164      191 1
     506      164      192 1
     507      196      224 1
     508      196      225 1
     509       61       49 1
     510       74       85 1
     511       48       49 1
     512       48       46 ar
     513       45       46 ar
     514       45       51 1
     515        5        7 1
     516        5       23 1
     517        5        3 1
     518        7       21 1
     519        7        8 1
     520       20        8 1
     521       49       60 1
     522       49       62 1
     523       46       47 2
     524        8        9 1
     525        8        4 1
     526       11       10 2
     527       24        3 1
     528        3        4 1
     529        3        1 1
     530       10        9 ar
     531       10       12 ar
     532        9       17 ar
     533       26        1 1
     534        1        2 1
     535        1       25 1
     536       12       18 1
     537       12       13 ar
     538       17       19 1
     539       17       15 ar
     540        2       30 1
     541       15       13 ar
     542       15       16 1
     543       13       14 2
     544       29       16 1
     545       16       28 1
     546       16       27 1
