@<TRIPOS>MOLECULE
1z04_EFGH.pdb
   507    546     16
SMALL
USER_CHARGES


@<TRIPOS>ATOM
       1 C313       16.3660  -46.0360  -13.9790 C.3       4 T4          0.0729
       2 O189       17.2910  -45.0900  -14.5420 O.3       4 T4         -0.3924
       3 C314       17.0170  -47.2520  -13.2980 C.3       4 T4          0.1107
       4 O190       17.7700  -48.0610  -14.2430 O.3       4 T4         -0.3483
       5 C315       18.0170  -46.8740  -12.2030 C.3       4 T4          0.0982
       6 O191       17.3050  -46.6670  -10.9790 O.3       4 T4         -0.3213
       7 C316       18.8520  -48.1400  -12.1400 C.3       4 T4          0.0221
       8 C317       18.9200  -48.6130  -13.5960 C.3       4 T4          0.1422
       9 N121       20.1330  -48.2080  -14.3220 N.ar      4 T4         -0.2737
      10 C318       21.2330  -49.0310  -14.2210 C.ar      4 T4          0.3313
      11 O192       21.2270  -50.0570  -13.5560 O.2       4 T4         -0.2464
      12 N122       22.3130  -48.6310  -14.9380 N.ar      4 T4         -0.2747
      13 C319       22.4170  -47.5400  -15.7850 C.ar      4 T4          0.2568
      14 O193       23.3940  -47.3930  -16.4680 O.2       4 T4         -0.2674
      15 C320       21.2510  -46.6670  -15.7530 C.ar      4 T4          0.0302
      16 C321       21.2720  -45.4610  -16.6540 C.3       4 T4         -0.0332
      17 C322       20.1840  -47.0530  -15.0830 C.ar      4 T4          0.0199
      18 H365       23.1080  -49.2690  -14.9030 H         4 T4          0.1734
      19 H366       19.2420  -46.4790  -15.0950 H         4 T4          0.0816
      20 H367       18.7870  -49.7190  -13.6160 H         4 T4          0.0840
      21 H368       19.8510  -47.9610  -11.6990 H         4 T4          0.0335
      22 H369       18.3250  -48.9130  -11.5400 H         4 T4          0.0335
      23 H370       18.5950  -45.9850  -12.5490 H         4 T4          0.0628
      24 H371       16.2470  -47.9180  -12.8530 H         4 T4          0.0646
      25 H372       15.6950  -46.4050  -14.7870 H         4 T4          0.0584
      26 H373       15.7390  -45.5140  -13.2180 H         4 T4          0.0584
      27 H374       20.9130  -45.7350  -17.6700 H         4 T4          0.0280
      28 H375       22.2990  -45.0420  -16.7550 H         4 T4          0.0280
      29 H376       20.6140  -44.6540  -16.2600 H         4 T4          0.0280
      30 H377       16.7970  -44.2510  -14.5960 H         4 T4          0.2095
      31  P31       17.9080  -45.7700   -9.8360 P.3       5 T5          0.2130
      32 O194       16.9360  -45.8270   -8.7170 O.3       5 T5         -0.4373
      33 O195       18.1950  -44.4340  -10.4010 O.co2     5 T5         -0.5172
      34 C323       19.1320  -47.7860   -8.7640 C.3       5 T5          0.0836
      35 O196       19.2530  -46.4850   -9.4050 O.3       5 T5         -0.3248
      36 C324       20.4830  -48.4230   -8.3990 C.3       5 T5          0.1114
      37 O197       21.3120  -48.6550   -9.5820 O.3       5 T5         -0.3483
      38 C325       21.3050  -47.5460   -7.4420 C.3       5 T5          0.0983
      39 O198       21.7880  -48.2730   -6.3150 O.3       5 T5         -0.3213
      40 C326       22.4300  -47.0140   -8.3130 C.3       5 T5          0.0221
      41 C327       22.5930  -48.0590   -9.4170 C.3       5 T5          0.1422
      42 N123       22.9670  -47.4490  -10.6970 N.ar      5 T5         -0.2737
      43 C328       24.1170  -47.8250  -11.3520 C.ar      5 T5          0.3313
      44 O199       24.8670  -48.6990  -10.9520 O.2       5 T5         -0.2464
      45 N124       24.3680  -47.1150  -12.4950 N.ar      5 T5         -0.2747
      46 C329       23.6470  -46.0450  -12.9770 C.ar      5 T5          0.2568
      47 O200       24.0840  -45.3810  -13.9130 O.2       5 T5         -0.2674
      48 C330       22.4180  -45.7560  -12.2790 C.ar      5 T5          0.0302
      49 C331       21.4550  -44.7190  -12.7730 C.3       5 T5         -0.0332
      50 C332       22.1390  -46.4770  -11.1930 C.ar      5 T5          0.0199
      51 H378       25.2430  -47.3570  -12.9470 H         5 T5          0.1734
      52 H379       21.1710  -46.4200  -10.6870 H         5 T5          0.0816
      53 H380       23.2880  -48.8640   -9.0760 H         5 T5          0.0840
      54 H381       22.1020  -46.0350   -8.7180 H         5 T5          0.0335
      55 H382       23.3900  -46.8720   -7.7920 H         5 T5          0.0335
      56 H383       20.6420  -46.7120   -7.1140 H         5 T5          0.0628
      57 H384       20.3190  -49.4100   -7.9150 H         5 T5          0.0646
      58 H385       18.5950  -48.5110   -9.4170 H         5 T5          0.0591
      59 H386       18.5570  -47.6890   -7.8120 H         5 T5          0.0591
      60 H387       21.9080  -44.0580  -13.5420 H         5 T5          0.0280
      61 H388       21.1000  -44.0780  -11.9340 H         5 T5          0.0280
      62 H389       20.5510  -45.1880  -13.2170 H         5 T5          0.0280
      63  P32       22.6360  -47.5580   -5.2060 P.3       6 G6          0.2130
      64 O201       22.2620  -48.0550   -3.8770 O.3       6 G6         -0.4373
      65 O202       22.5760  -46.0810   -5.3690 O.co2     6 G6         -0.5172
      66 C333       24.4180  -49.3740   -5.8070 C.3       6 G6          0.0836
      67 O203       24.1120  -47.9830   -5.5290 O.3       6 G6         -0.3248
      68 C334       25.7960  -49.5350   -6.4600 C.3       6 G6          0.1114
      69 O204       25.8360  -48.8380   -7.7410 O.3       6 G6         -0.3484
      70 C335       26.9230  -48.9140   -5.6150 C.3       6 G6          0.0983
      71 O205       28.0220  -49.8070   -5.4040 O.3       6 G6         -0.3213
      72 C336       27.3680  -47.7090   -6.4220 C.3       6 G6          0.0220
      73 C337       27.0760  -48.1550   -7.8470 C.3       6 G6          0.1408
      74 N125       28.9940  -45.6720  -11.8390 N.ar      6 G6         -0.2934
      75 C338       29.4370  -46.8150  -11.2240 C.ar      6 G6          0.1950
      76 N126       30.5530  -47.3200  -11.6760 N.pl3     6 G6         -0.3289
      77 N127       28.8280  -47.3900  -10.2080 N.ar      6 G6         -0.1963
      78 C339       27.7180  -46.7360   -9.8360 C.ar      6 G6          0.1711
      79 C340       27.1690  -45.5820  -10.3870 C.ar      6 G6          0.1721
      80 C341       27.8500  -44.9950  -11.4790 C.ar      6 G6          0.2803
      81 O206       27.4730  -43.9530  -12.0680 O.2       6 G6         -0.2654
      82 N128       26.0280  -45.1830   -9.6840 N.ar      6 G6         -0.2286
      83 C342       25.9200  -46.0930   -8.7350 C.ar      6 G6          0.1004
      84 N129       26.9080  -47.0470   -8.7840 N.ar      6 G6         -0.2878
      85 H390       29.5220  -45.3040  -12.6120 H         6 G6          0.1716
      86 H391       31.0880  -46.8740  -12.3900 H         6 G6          0.1451
      87 H392       30.9140  -48.0850  -11.1540 H         6 G6          0.1451
      88 H393       25.1580  -46.1340   -7.9580 H         6 G6          0.1030
      89 H394       27.8330  -48.8950   -8.1950 H         6 G6          0.0840
      90 H395       26.7390  -46.8370   -6.1440 H         6 G6          0.0335
      91 H396       28.4400  -47.4750   -6.2840 H         6 G6          0.0335
      92 H397       26.4530  -48.5970   -4.6540 H         6 G6          0.0628
      93 H398       26.0310  -50.6040   -6.6420 H         6 G6          0.0646
      94 H399       23.6760  -49.8450   -6.4970 H         6 G6          0.0591
      95 H400       24.4220  -49.9540   -4.8540 H         6 G6          0.0591
      96  P33       29.0110  -49.4910   -4.2050 P.3       7 T7          0.2130
      97 O207       29.3180  -50.7720   -3.5300 O.2       7 T7         -0.5172
      98 O208       28.4580  -48.3920   -3.3800 O.co2     7 T7         -0.4373
      99 C343       31.1580  -49.9600   -5.5730 C.3       7 T7          0.0836
     100 O209       30.3040  -48.9640   -4.9510 O.3       7 T7         -0.3248
     101 C344       32.3720  -49.3360   -6.2770 C.3       7 T7          0.1114
     102 O210       31.9480  -48.4200   -7.3350 O.3       7 T7         -0.3483
     103 C345       33.2590  -48.5140   -5.3130 C.3       7 T7          0.0983
     104 O211       34.6530  -48.7740   -5.4910 O.3       7 T7         -0.3213
     105 C346       32.8860  -47.0790   -5.6460 C.3       7 T7          0.0221
     106 C347       32.5670  -47.1610   -7.1420 C.3       7 T7          0.1422
     107 N130       31.6360  -46.1440   -7.6350 N.ar      7 T7         -0.2737
     108 C348       31.8720  -45.5330   -8.8370 C.ar      7 T7          0.3313
     109 O212       32.8400  -45.8050   -9.5570 O.2       7 T7         -0.2464
     110 N131       30.9540  -44.5940   -9.1970 N.ar      7 T7         -0.2747
     111 C349       29.8460  -44.2070   -8.4820 C.ar      7 T7          0.2568
     112 O213       29.1170  -43.3190   -8.9230 O.2       7 T7         -0.2674
     113 C350       29.6220  -44.9190   -7.2550 C.ar      7 T7          0.0302
     114 C351       28.4510  -44.5040   -6.4180 C.3       7 T7         -0.0332
     115 C352       30.5140  -45.8490   -6.8930 C.ar      7 T7          0.0199
     116 H401       31.1960  -44.0430  -10.0100 H         7 T7          0.1734
     117 H402       30.3420  -46.5300   -6.0510 H         7 T7          0.0816
     118 H403       33.5280  -47.2040   -7.7110 H         7 T7          0.0840
     119 H404       31.9890  -46.8280   -5.0430 H         7 T7          0.0335
     120 H405       33.6650  -46.3370   -5.4140 H         7 T7          0.0335
     121 H406       32.9460  -48.7610   -4.2690 H         7 T7          0.0628
     122 H407       32.9960  -50.1220   -6.7500 H         7 T7          0.0646
     123 H408       30.5880  -50.5570   -6.3250 H         7 T7          0.0591
     124 H409       31.5570  -50.6620   -4.7990 H         7 T7          0.0591
     125 H410       27.5020  -44.5680   -6.9950 H         7 T7          0.0280
     126 H411       28.5750  -43.4490   -6.0880 H         7 T7          0.0280
     127 H412       28.3490  -45.1420   -5.5130 H         7 T7          0.0280
     128  P34       35.7670  -48.0470   -4.6400 P.3       8 G8          0.2130
     129 O214       36.8300  -49.0320   -4.3540 O.2       8 G8         -0.5172
     130 O215       35.1580  -47.3480   -3.4880 O.co2     8 G8         -0.4373
     131 C353       36.7380  -47.4250   -6.9780 C.3       8 G8          0.0836
     132 O216       36.3190  -46.9660   -5.6660 O.3       8 G8         -0.3248
     133 C354       37.2930  -46.2940   -7.8610 C.3       8 G8          0.1114
     134 O217       36.2050  -45.4520   -8.3450 O.3       8 G8         -0.3484
     135 C355       38.2680  -45.3390   -7.1440 C.3       8 G8          0.0983
     136 O218       39.3700  -44.9770   -7.9810 O.3       8 G8         -0.3213
     137 C356       37.3940  -44.1450   -6.8050 C.3       8 G8          0.0220
     138 C357       36.4660  -44.0890   -8.0080 C.3       8 G8          0.1408
     139 N132       33.3530  -40.3270   -9.2920 N.ar      8 G8         -0.2934
     140 C358       34.5780  -40.6390   -9.8010 C.ar      8 G8          0.1950
     141 N133       35.0440  -39.8480  -10.7380 N.pl3     8 G8         -0.3289
     142 N134       35.3130  -41.6420   -9.3580 N.ar      8 G8         -0.1963
     143 C359       34.7060  -42.3300   -8.3720 C.ar      8 G8          0.1711
     144 C360       33.4870  -42.0840   -7.7760 C.ar      8 G8          0.1721
     145 C361       32.7060  -41.0050   -8.2680 C.ar      8 G8          0.2803
     146 O219       31.5950  -40.6630   -7.8510 O.2       8 G8         -0.2654
     147 N135       33.2280  -43.0080   -6.7600 N.ar      8 G8         -0.2286
     148 C362       34.2850  -43.7970   -6.7830 C.ar      8 G8          0.1004
     149 N136       35.1990  -43.4360   -7.7410 N.ar      8 G8         -0.2878
     150 H413       32.8560  -39.5440   -9.6880 H         8 G8          0.1716
     151 H414       34.5420  -39.0370  -11.0510 H         8 G8          0.1451
     152 H415       36.0170  -39.9460  -10.9230 H         8 G8          0.1451
     153 H416       34.4650  -44.6680   -6.1440 H         8 G8          0.1030
     154 H417       36.9960  -43.6290   -8.8760 H         8 G8          0.0840
     155 H418       36.8210  -44.3970   -5.8860 H         8 G8          0.0335
     156 H419       37.9340  -43.2000   -6.6300 H         8 G8          0.0335
     157 H420       38.6260  -45.8430   -6.2140 H         8 G8          0.0628
     158 H421       37.8010  -46.7230   -8.7510 H         8 G8          0.0646
     159 H422       35.8840  -47.8930   -7.5240 H         8 G8          0.0591
     160 H423       37.5450  -48.1890   -6.8750 H         8 G8          0.0591
     161  P35       40.5090  -44.0200   -7.4540 P.3       9 A9          0.2130
     162 O220       41.7950  -44.4830   -8.0100 O.2       9 A9         -0.5172
     163 O221       40.4100  -43.8700   -5.9860 O.co2     9 A9         -0.4373
     164 C363       40.0810  -42.5740   -9.5890 C.3       9 A9          0.0836
     165 O222       40.1340  -42.6410   -8.1400 O.3       9 A9         -0.3248
     166 C364       40.0890  -41.1260  -10.1220 C.3       9 A9          0.1114
     167 O223       38.8070  -40.4840   -9.8510 O.3       9 A9         -0.3484
     168 C365       41.1610  -40.2290   -9.4680 C.3       9 A9          0.0983
     169 O224       41.7720  -39.3360  -10.4050 O.3       9 A9         -0.3213
     170 C366       40.3940  -39.4890   -8.3830 C.3       9 A9          0.0220
     171 C367       38.9690  -39.3960   -8.9410 C.3       9 A9          0.1408
     172 N137       34.4100  -37.7830   -7.2110 N.ar      9 A9         -0.2188
     173 C368       35.1960  -37.3320   -8.1920 C.ar      9 A9          0.1205
     174 N138       36.3760  -37.7950   -8.5880 N.ar      9 A9         -0.2159
     175 C369       36.7770  -38.8340   -7.8290 C.ar      9 A9          0.1673
     176 C370       36.0940  -39.3910   -6.7660 C.ar      9 A9          0.1473
     177 C371       34.8350  -38.8260   -6.4680 C.ar      9 A9          0.1472
     178 N139       33.9990  -39.2520   -5.5130 N.pl3     9 A9         -0.3413
     179 N140       36.7900  -40.4650   -6.2280 N.ar      9 A9         -0.2306
     180 C372       37.8740  -40.5260   -6.9730 C.ar      9 A9          0.1003
     181 N141       37.9290  -39.5580   -7.9450 N.ar      9 A9         -0.2879
     182 H424       34.8110  -36.4810   -8.7700 H         9 A9          0.1048
     183 H425       33.1070  -38.8050   -5.4230 H         9 A9          0.1438
     184 H426       34.2990  -39.9120   -4.8310 H         9 A9          0.1438
     185 H427       38.6780  -41.2600   -6.8620 H         9 A9          0.1030
     186 H428       38.8580  -38.4590   -9.5380 H         9 A9          0.0840
     187 H429       40.4340  -40.1090   -7.4620 H         9 A9          0.0335
     188 H430       40.8050  -38.4880   -8.1580 H         9 A9          0.0335
     189 H431       41.9280  -40.9050   -9.0150 H         9 A9          0.0628
     190 H432       40.2400  -41.1270  -11.2230 H         9 A9          0.0646
     191 H433       39.1630  -43.0840   -9.9630 H         9 A9          0.0591
     192 H434       40.9640  -43.0850  -10.0430 H         9 A9          0.0591
     193  P36       43.0130  -38.4510   -9.9740 P.3      10 G10         0.2130
     194 O225       43.8990  -38.2950  -11.1470 O.2      10 G10        -0.5172
     195 O226       43.6000  -38.9930   -8.7300 O.co2    10 G10        -0.4373
     196 C373       41.5730  -36.3660  -10.6520 C.3      10 G10         0.0836
     197 O227       42.3470  -37.0520   -9.6370 O.3      10 G10        -0.3248
     198 C374       40.6970  -35.2510  -10.0550 C.3      10 G10         0.1114
     199 O228       39.6790  -35.8360   -9.1780 O.3      10 G10        -0.3484
     200 C375       41.4500  -34.2390   -9.1510 C.3      10 G10         0.0983
     201 O229       41.0950  -32.8760   -9.4040 O.3      10 G10        -0.3213
     202 C376       40.9810  -34.5900   -7.7540 C.3      10 G10         0.0220
     203 C377       39.5420  -34.9790   -8.0580 C.3      10 G10         0.1408
     204 N142       35.4590  -35.2660   -5.0720 N.ar     10 G10        -0.2934
     205 C378       35.7290  -34.3860   -6.0780 C.ar     10 G10         0.1950
     206 N143       34.8130  -33.4800   -6.3290 N.pl3    10 G10        -0.3289
     207 N144       36.8400  -34.4110   -6.7890 N.ar     10 G10        -0.1963
     208 C379       37.6560  -35.4220   -6.4360 C.ar     10 G10         0.1711
     209 C380       37.4740  -36.3650   -5.4430 C.ar     10 G10         0.1721
     210 C381       36.2780  -36.3110   -4.6690 C.ar     10 G10         0.2803
     211 O230       35.9460  -37.0640   -3.7480 O.2      10 G10        -0.2654
     212 N145       38.5670  -37.2360   -5.3810 N.ar     10 G10        -0.2286
     213 C382       39.3680  -36.8060   -6.3310 C.ar     10 G10         0.1004
     214 N146       38.8760  -35.7070   -6.9890 N.ar     10 G10        -0.2878
     215 H435       34.5820  -35.1900   -4.5850 H        10 G10         0.1716
     216 H436       33.9150  -33.4860   -5.8840 H        10 G10         0.1451
     217 H437       34.9810  -32.9320   -7.1440 H        10 G10         0.1451
     218 H438       40.3250  -37.2520   -6.6110 H        10 G10         0.1030
     219 H439       38.9550  -34.0900   -8.3910 H        10 G10         0.0840
     220 H440       41.5720  -35.4530   -7.3810 H        10 G10         0.0335
     221 H441       41.0580  -33.7320   -7.0620 H        10 G10         0.0335
     222 H442       42.5440  -34.4430   -9.2510 H        10 G10         0.0628
     223 H443       40.1830  -34.6880  -10.8630 H        10 G10         0.0646
     224 H444       40.8940  -37.0650  -11.1970 H        10 G10         0.0591
     225 H445       42.2650  -35.9090  -11.3970 H        10 G10         0.0591
     226  P37       42.1650  -31.8290   -9.8990 P.3      11 C11         0.2130
     227 O231       41.9110  -31.5370  -11.3300 O.2      11 C11        -0.5172
     228 O232       43.5190  -32.2890   -9.5210 O.co2    11 C11        -0.4373
     229 C383       40.5850  -29.8100   -9.2500 C.3      11 C11         0.0836
     230 O233       41.8280  -30.5310   -9.0440 O.3      11 C11        -0.3248
     231 C384       39.8350  -29.4810   -7.9440 C.3      11 C11         0.1114
     232 O234       39.5810  -30.6950   -7.1990 O.3      11 C11        -0.3483
     233 C385       40.5870  -28.6080   -6.9020 C.3      11 C11         0.0983
     234 O235       40.0920  -27.2570   -6.8830 O.3      11 C11        -0.3213
     235 C386       40.2930  -29.3120   -5.5630 C.3      11 C11         0.0221
     236 C387       39.1600  -30.2780   -5.9180 C.3      11 C11         0.1423
     237 N147       39.0730  -31.4750   -5.0590 N.ar     11 C11        -0.2725
     238 C388       37.8870  -31.8120   -4.4090 C.ar     11 C11         0.3521
     239 O236       36.8900  -31.1000   -4.5300 O.2      11 C11        -0.2444
     240 N148       37.8440  -32.9140   -3.6350 N.ar     11 C11        -0.1783
     241 C389       38.8970  -33.7230   -3.5550 C.ar     11 C11         0.1230
     242 N149       38.7560  -34.8200   -2.8210 N.pl3    11 C11        -0.3430
     243 C390       40.1120  -33.4440   -4.2490 C.ar     11 C11        -0.0056
     244 C391       40.1590  -32.3080   -4.9670 C.ar     11 C11         0.0151
     245 H446       37.9210  -34.8930   -2.2730 H        11 C11         0.1437
     246 H447       39.4870  -35.4810   -2.6930 H        11 C11         0.1437
     247 H448       40.9450  -34.1330   -4.1880 H        11 C11         0.0666
     248 H449       41.0390  -31.9860   -5.5390 H        11 C11         0.0812
     249 H450       38.1950  -29.7320   -6.0450 H        11 C11         0.0840
     250 H451       41.2010  -29.8530   -5.2360 H        11 C11         0.0335
     251 H452       39.9850  -28.6010   -4.7730 H        11 C11         0.0335
     252 H453       41.6770  -28.6850   -7.1300 H        11 C11         0.0628
     253 H454       38.8530  -29.0070   -8.1640 H        11 C11         0.0646
     254 H455       39.8650  -30.3700   -9.8990 H        11 C11         0.0591
     255 H456       40.8070  -28.8510   -9.7650 H        11 C11         0.0591
     256  P38       41.0220  -26.0270   -7.1410 P.3      12 G12         0.2130
     257 O237       40.2190  -24.7760   -7.0700 O.3      12 G12        -0.4373
     258 O238       41.7830  -26.1840   -8.4080 O.co2    12 G12        -0.5172
     259 C392       41.6660  -25.4410   -4.6850 C.3      12 G12         0.0836
     260 O239       42.0630  -26.0270   -5.9500 O.3      12 G12        -0.3248
     261 C393       42.3000  -26.1060   -3.4500 C.3      12 G12         0.1114
     262 O240       41.9130  -27.4870   -3.3120 O.3      12 G12        -0.3484
     263 C394       43.8390  -26.1800   -3.3830 C.3      12 G12         0.0983
     264 O241       44.3220  -25.1400   -2.5310 O.3      12 G12        -0.3213
     265 C395       44.1060  -27.6060   -2.8360 C.3      12 G12         0.0220
     266 C396       42.7340  -27.9880   -2.2830 C.3      12 G12         0.1408
     267 N150       40.2640  -31.6010    0.3150 N.ar     12 G12        -0.2934
     268 C397       40.3430  -30.2630    0.5800 C.ar     12 G12         0.1950
     269 N151       39.6840  -29.8520    1.6320 N.pl3    12 G12        -0.3289
     270 N152       41.0280  -29.4090   -0.1670 N.ar     12 G12        -0.1963
     271 C398       41.6700  -30.0160   -1.1920 C.ar     12 G12         0.1711
     272 C399       41.6830  -31.3610   -1.5140 C.ar     12 G12         0.1721
     273 C400       40.9060  -32.2500   -0.7230 C.ar     12 G12         0.2803
     274 O242       40.7690  -33.4660   -0.8880 O.2      12 G12        -0.2654
     275 N153       42.4690  -31.5960   -2.6460 N.ar     12 G12        -0.2286
     276 C401       42.8870  -30.4040   -2.9920 C.ar     12 G12         0.1004
     277 N154       42.4500  -29.4100   -2.1470 N.ar     12 G12        -0.2878
     278 H457       39.7170  -32.1830    0.9290 H        12 G12         0.1716
     279 H458       39.1960  -30.4930    2.2310 H        12 G12         0.1451
     280 H459       39.8200  -28.9090    1.9260 H        12 G12         0.1451
     281 H460       43.5060  -30.1840   -3.8620 H        12 G12         0.1030
     282 H461       42.5270  -27.4320   -1.3430 H        12 G12         0.0840
     283 H462       44.3970  -28.2550   -3.6870 H        12 G12         0.0335
     284 H463       44.8750  -27.6710   -2.0470 H        12 G12         0.0335
     285 H464       44.2400  -26.0760   -4.4160 H        12 G12         0.0628
     286 H465       41.9510  -25.5790   -2.5410 H        12 G12         0.0646
     287 H466       40.5620  -25.4860   -4.5230 H        12 G12         0.0591
     288 H467       41.9680  -24.3690   -4.6780 H        12 G12         0.0591
     289  P39       45.7970  -25.0300   -2.0330 P.3      13 C13         0.2130
     290 O243       46.1140  -23.6040   -1.7890 O.3      13 C13        -0.4373
     291 O244       46.7020  -25.7640   -2.9380 O.co2    13 C13        -0.5172
     292 C402       45.1340  -25.0190    0.4660 C.3      13 C13         0.0836
     293 O245       45.7430  -25.7560   -0.6350 O.3      13 C13        -0.3248
     294 C403       44.5460  -25.9070    1.5760 C.3      13 C13         0.1114
     295 O246       43.7930  -27.0270    1.0590 O.3      13 C13        -0.3483
     296 C404       45.5680  -26.5380    2.5240 C.3      13 C13         0.0983
     297 O247       45.9990  -25.5620    3.4770 O.3      13 C13        -0.3213
     298 C405       44.6900  -27.5930    3.1810 C.3      13 C13         0.0221
     299 C406       43.7610  -28.0580    2.0460 C.3      13 C13         0.1423
     300 N155       44.1010  -29.3570    1.4350 N.ar     13 C13        -0.2725
     301 C407       43.5230  -30.5220    1.9280 C.ar     13 C13         0.3521
     302 O248       42.7150  -30.4490    2.8680 O.2      13 C13        -0.2444
     303 N156       43.8200  -31.7110    1.3690 N.ar     13 C13        -0.1783
     304 C408       44.6530  -31.7650    0.3220 C.ar     13 C13         0.1230
     305 N157       44.8410  -32.9400   -0.2520 N.pl3    13 C13        -0.3430
     306 C409       45.3020  -30.5960   -0.1780 C.ar     13 C13        -0.0056
     307 C410       45.0020  -29.4200    0.3980 C.ar     13 C13         0.0151
     308 H468       44.2720  -33.7020    0.0800 H        13 C13         0.1437
     309 H469       45.2300  -32.9940   -1.1660 H        13 C13         0.1437
     310 H470       45.9890  -30.6780   -1.0150 H        13 C13         0.0666
     311 H471       45.4040  -28.4590    0.0550 H        13 C13         0.0812
     312 H472       42.7140  -28.0730    2.4290 H        13 C13         0.0840
     313 H473       45.2770  -28.4140    3.6280 H        13 C13         0.0335
     314 H474       44.0620  -27.1410    3.9750 H        13 C13         0.0335
     315 H475       46.3950  -26.9630    1.9100 H        13 C13         0.0628
     316 H476       43.8400  -25.3150    2.1900 H        13 C13         0.0646
     317 H477       44.2870  -24.3730    0.1260 H        13 C13         0.0591
     318 H478       45.8960  -24.3510    0.9340 H        13 C13         0.0591
     319  P40       47.2490  -25.8410    4.3940 P.3      14 T14         0.2130
     320 O249       47.5900  -24.5580    5.0430 O.3      14 T14        -0.4373
     321 O250       48.3180  -26.5390    3.6490 O.co2    14 T14        -0.5172
     322 C411       45.6380  -26.4730    6.3840 C.3      14 T14         0.0836
     323 O251       46.6920  -26.8320    5.4670 O.3      14 T14        -0.3248
     324 C412       45.3160  -27.6230    7.3550 C.3      14 T14         0.1114
     325 O252       44.9800  -28.8510    6.6300 O.3      14 T14        -0.3483
     326 C413       46.4960  -27.9720    8.2760 C.3      14 T14         0.0983
     327 O253       46.0860  -28.1710    9.6280 O.3      14 T14        -0.3213
     328 C414       47.0640  -29.2420    7.6660 C.3      14 T14         0.0221
     329 C415       45.8430  -29.9150    7.0340 C.3      14 T14         0.1422
     330 N158       46.1450  -30.7170    5.8340 N.ar     14 T14        -0.2737
     331 C416       45.7460  -32.0220    5.7380 C.ar     14 T14         0.3313
     332 O254       45.1370  -32.6110    6.6370 O.2      14 T14        -0.2464
     333 N159       46.0850  -32.6470    4.5710 N.ar     14 T14        -0.2747
     334 C417       46.7840  -32.1100    3.5240 C.ar     14 T14         0.2568
     335 O255       47.0180  -32.8130    2.5290 O.2      14 T14        -0.2674
     336 C418       47.1740  -30.7350    3.6760 C.ar     14 T14         0.0302
     337 C419       48.0360  -30.0670    2.6530 C.3      14 T14        -0.0332
     338 C420       46.8580  -30.1180    4.8280 C.ar     14 T14         0.0199
     339 H479       45.8080  -33.6170    4.5020 H        14 T14         0.1734
     340 H480       47.0310  -29.0500    4.9670 H        14 T14         0.0816
     341 H481       45.2870  -30.4770    7.8220 H        14 T14         0.0840
     342 H482       47.8110  -28.9420    6.9030 H        14 T14         0.0335
     343 H483       47.5550  -29.8910    8.4060 H        14 T14         0.0335
     344 H484       47.2390  -27.1410    8.2030 H        14 T14         0.0628
     345 H485       44.4490  -27.3540    7.9930 H        14 T14         0.0646
     346 H486       44.7020  -26.2250    5.8340 H        14 T14         0.0591
     347 H487       45.9360  -25.5810    6.9840 H        14 T14         0.0591
     348 H488       47.8360  -30.4590    1.6300 H        14 T14         0.0280
     349 H489       49.1150  -30.2230    2.8790 H        14 T14         0.0280
     350 H490       47.8520  -28.9680    2.6330 H        14 T14         0.0280
     351  P41       47.1670  -28.3180   10.7690 P.3      15 C15         0.2130
     352 O256       46.7060  -27.5070   11.9170 O.3      15 C15        -0.4373
     353 O257       48.5130  -28.0060   10.2330 O.co2    15 C15        -0.5172
     354 C421       45.8070  -30.4470   11.4310 C.3      15 C15         0.0836
     355 O258       47.1020  -29.8710   11.1140 O.3      15 C15        -0.3248
     356 C422       45.8710  -31.9430   11.8020 C.3      15 C15         0.1114
     357 O259       46.0180  -32.7610   10.6030 O.3      15 C15        -0.3483
     358 C423       47.0300  -32.3410   12.7270 C.3      15 C15         0.0983
     359 O260       46.6200  -33.2730   13.7300 O.3      15 C15        -0.3213
     360 C424       48.0560  -32.9480   11.7880 C.3      15 C15         0.0221
     361 C425       47.2000  -33.5620   10.6720 C.3      15 C15         0.1423
     362 N160       47.8040  -33.5380    9.3290 N.ar     15 C15        -0.2725
     363 C426       47.8450  -34.6470    8.4870 C.ar     15 C15         0.3521
     364 O261       47.4040  -35.7440    8.8780 O.2      15 C15        -0.2444
     365 N161       48.3760  -34.5360    7.2520 N.ar     15 C15        -0.1783
     366 C427       48.8470  -33.3560    6.8360 C.ar     15 C15         0.1230
     367 N162       49.3470  -33.2970    5.6160 N.pl3    15 C15        -0.3430
     368 C428       48.8360  -32.2070    7.6720 C.ar     15 C15        -0.0056
     369 C429       48.2950  -32.3330    8.8900 C.ar     15 C15         0.0151
     370 H491       49.3910  -34.1480    5.0850 H        15 C15         0.1437
     371 H492       49.8580  -32.4960    5.2850 H        15 C15         0.1437
     372 H493       49.2080  -31.2560    7.2910 H        15 C15         0.0666
     373 H494       48.1850  -31.4960    9.5900 H        15 C15         0.0812
     374 H495       46.8700  -34.5820   10.9800 H        15 C15         0.0840
     375 H496       48.7090  -32.1330   11.4190 H        15 C15         0.0335
     376 H497       48.6930  -33.7060   12.2680 H        15 C15         0.0335
     377 H498       47.4270  -31.4040   13.1880 H        15 C15         0.0628
     378 H499       44.9200  -32.2440   12.2860 H        15 C15         0.0646
     379 H500       45.1010  -30.3430   10.5720 H        15 C15         0.0591
     380 H501       45.3610  -29.9160   12.3060 H        15 C15         0.0591
     381  P42       47.6070  -33.6600   14.9020 P.3      16 A16         0.2130
     382 O262       46.8340  -33.6820   16.1600 O.3      16 A16        -0.4373
     383 O263       48.8140  -32.8050   14.8550 O.co2    16 A16        -0.5172
     384 C430       46.9800  -36.1600   14.5040 C.3      16 A16         0.0836
     385 O264       48.0150  -35.1420   14.5170 O.3      16 A16        -0.3248
     386 C431       47.4990  -37.5170   13.9930 C.3      16 A16         0.1114
     387 O265       47.9070  -37.4030   12.5920 O.3      16 A16        -0.3484
     388 C432       48.7420  -38.0160   14.7610 C.3      16 A16         0.0983
     389 O266       48.7060  -39.4230   15.0380 O.3      16 A16        -0.3213
     390 C433       49.8870  -37.6390   13.8340 C.3      16 A16         0.0220
     391 C434       49.2670  -37.7840   12.4460 C.3      16 A16         0.1408
     392 N163       50.9690  -37.2960    7.6020 N.ar     16 A16        -0.2188
     393 C435       50.3770  -38.3150    8.2370 C.ar     16 A16         0.1205
     394 N164       49.9340  -38.3710    9.4930 N.ar     16 A16        -0.2159
     395 C436       50.1330  -37.2080   10.1370 C.ar     16 A16         0.1673
     396 C437       50.7400  -36.0780    9.6270 C.ar     16 A16         0.1473
     397 C438       51.1660  -36.1460    8.2820 C.ar     16 A16         0.1472
     398 N165       51.7790  -35.1420    7.6360 N.pl3    16 A16        -0.3413
     399 N166       50.8430  -35.0780   10.5950 N.ar     16 A16        -0.2306
     400 C439       50.2770  -35.6230   11.6500 C.ar     16 A16         0.1003
     401 N167       49.8660  -36.9160   11.4490 N.ar     16 A16        -0.2879
     402 H502       50.2390  -39.2330    7.6490 H        16 A16         0.1048
     403 H503       52.0400  -35.2860    6.6770 H        16 A16         0.1438
     404 H504       51.8360  -34.2400    8.0450 H        16 A16         0.1438
     405 H505       50.1290  -35.1270   12.6160 H        16 A16         0.1030
     406 H506       49.2670  -38.8570   12.1370 H        16 A16         0.0840
     407 H507       50.1330  -36.5800   14.0630 H        16 A16         0.0335
     408 H508       50.8050  -38.2390   13.9520 H        16 A16         0.0335
     409 H509       48.7990  -37.4320   15.7130 H        16 A16         0.0628
     410 H510       46.7020  -38.2870   14.0570 H        16 A16         0.0646
     411 H511       46.1250  -35.8580   13.8520 H        16 A16         0.0591
     412 H512       46.5850  -36.3130   15.5370 H        16 A16         0.0591
     413  P43       49.9210  -40.0800   15.8210 P.3      17 C17         0.2130
     414 O267       49.4010  -41.1120   16.7430 O.3      17 C17        -0.4373
     415 O268       50.7640  -39.0080   16.3980 O.co2    17 C17        -0.5172
     416 C440       50.1900  -42.0380   14.1310 C.3      17 C17         0.0836
     417 O269       50.7180  -40.7780   14.6310 O.3      17 C17        -0.3248
     418 C441       50.8160  -42.4970   12.7980 C.3      17 C17         0.1114
     419 O270       50.6500  -41.4930   11.7500 O.3      17 C17        -0.3483
     420 C442       52.3250  -42.7850   12.8340 C.3      17 C17         0.0983
     421 O271       52.5570  -44.1190   13.3030 O.3      17 C17        -0.3213
     422 C443       52.6670  -42.6710   11.3570 C.3      17 C17         0.0221
     423 C444       51.7870  -41.5200   10.8710 C.3      17 C17         0.1423
     424 N168       52.4620  -40.2030   10.8410 N.ar     17 C17        -0.2725
     425 C445       53.2050  -39.8190    9.7250 C.ar     17 C17         0.3521
     426 O272       53.2940  -40.5830    8.7530 O.2      17 C17        -0.2444
     427 N169       53.8120  -38.6090    9.7060 N.ar     17 C17        -0.1783
     428 C446       53.7570  -37.8250   10.7800 C.ar     17 C17         0.1230
     429 N170       54.3420  -36.6400   10.6730 N.pl3    17 C17        -0.3430
     430 C447       53.0820  -38.2220   11.9730 C.ar     17 C17        -0.0056
     431 C448       52.4750  -39.4190   11.9680 C.ar     17 C17         0.0151
     432 H513       54.7620  -36.4490    9.7830 H        17 C17         0.1437
     433 H514       54.3700  -35.9770   11.4080 H        17 C17         0.1437
     434 H515       53.0600  -37.5630   12.8380 H        17 C17         0.0666
     435 H516       51.8920  -39.8020   12.8170 H        17 C17         0.0812
     436 H517       51.3970  -41.7700    9.8570 H        17 C17         0.0840
     437 H518       53.7460  -42.5020   11.1840 H        17 C17         0.0335
     438 H519       52.3600  -43.5940   10.8200 H        17 C17         0.0335
     439 H520       52.8040  -41.9990   13.4650 H        17 C17         0.0628
     440 H521       50.3130  -43.4210   12.4450 H        17 C17         0.0646
     441 H522       49.0870  -41.9720   13.9630 H        17 C17         0.0591
     442 H523       50.3740  -42.8450   14.8800 H        17 C17         0.0591
     443  P44       54.0280  -44.5280   13.7270 P.3      18 A18         0.2130
     444 O273       53.9660  -45.8270   14.4280 O.3      18 A18        -0.4373
     445 O274       54.6790  -43.3950   14.4140 O.co2    18 A18        -0.5172
     446 C449       54.3440  -45.6790   11.3740 C.3      18 A18         0.0836
     447 O275       54.7730  -44.7210   12.3570 O.3      18 A18        -0.3248
     448 C450       55.2610  -45.6490   10.1390 C.3      18 A18         0.1114
     449 O276       55.3860  -44.2960    9.5670 O.3      18 A18        -0.3484
     450 C451       56.6850  -46.0820   10.5110 C.3      18 A18         0.0983
     451 O277       57.2550  -46.9460    9.5280 O.3      18 A18        -0.3213
     452 C452       57.4390  -44.7680   10.6480 C.3      18 A18         0.0220
     453 C453       56.7520  -43.8560    9.6340 C.3      18 A18         0.1408
     454 N171       58.1130  -39.0330    8.3410 N.ar     18 A18        -0.2188
     455 C454       58.2130  -40.1920    7.6780 C.ar     18 A18         0.1205
     456 N172       57.8550  -41.4160    8.0780 N.ar     18 A18        -0.2159
     457 C455       57.2770  -41.3900    9.2950 C.ar     18 A18         0.1673
     458 C456       57.0880  -40.2760   10.0930 C.ar     18 A18         0.1473
     459 C457       57.5560  -39.0450    9.5740 C.ar     18 A18         0.1472
     460 N173       57.5050  -37.8830   10.2430 N.pl3    18 A18        -0.3413
     461 N174       56.4770  -40.6200   11.2990 N.ar     18 A18        -0.2306
     462 C458       56.3100  -41.9250   11.2020 C.ar     18 A18         0.1003
     463 N175       56.7690  -42.4490   10.0140 N.ar     18 A18        -0.2879
     464 H524       58.6760  -40.1360    6.6820 H        18 A18         0.1048
     465 H525       57.3420  -37.8930   11.2230 H        18 A18         0.1438
     466 H526       58.0150  -37.1060    9.8640 H        18 A18         0.1438
     467 H527       55.8430  -42.5580   11.9660 H        18 A18         0.1030
     468 H528       57.1970  -44.0210    8.6250 H        18 A18         0.0840
     469 H529       57.2800  -44.3980   11.6850 H        18 A18         0.0335
     470 H530       58.5230  -44.8460   10.4770 H        18 A18         0.0335
     471 H531       56.6370  -46.6000   11.5000 H        18 A18         0.0628
     472 H532       54.8760  -46.3390    9.3590 H        18 A18         0.0646
     473 H533       53.3010  -45.4770   11.0470 H        18 A18         0.0591
     474 H534       54.3680  -46.7080   11.8040 H        18 A18         0.0591
     475  P45       58.7020  -47.5380    9.7360 P.3      19 A19         0.2130
     476 O278       58.7520  -48.8900    9.1480 O.2      19 A19        -0.5172
     477 O279       59.1220  -47.3710   11.1430 O.co2    19 A19        -0.4373
     478 C459       59.1750  -46.3930    7.4510 C.3      19 A19         0.0835
     479 O280       59.5850  -46.5760    8.8310 O.3      19 A19        -0.3248
     480 C460       60.1980  -45.5760    6.6540 C.3      19 A19         0.1107
     481 O281       60.1010  -44.1730    7.0370 O.3      19 A19        -0.3484
     482 C461       61.6590  -45.9800    6.9390 C.3      19 A19         0.0877
     483 O282       62.5250  -46.0140    5.8060 O.3      19 A19        -0.3890
     484 C462       62.1530  -44.9400    7.9190 C.3      19 A19         0.0213
     485 C463       61.3510  -43.6970    7.5120 C.3      19 A19         0.1408
     486 N176       61.4570  -38.8020    9.0840 N.ar     19 A19        -0.2188
     487 C464       61.7550  -39.3740    7.9100 C.ar     19 A19         0.1205
     488 N177       61.7480  -40.6710    7.5880 N.ar     19 A19        -0.2159
     489 C465       61.2590  -41.4200    8.5890 C.ar     19 A19         0.1673
     490 C466       60.8660  -40.9810    9.8390 C.ar     19 A19         0.1473
     491 C467       60.9960  -39.5930   10.0830 C.ar     19 A19         0.1472
     492 N178       60.6850  -39.0220   11.2510 N.pl3    19 A19        -0.3413
     493 N179       60.4170  -42.0460   10.6270 N.ar     19 A19        -0.2306
     494 C468       60.5470  -43.0890    9.8300 C.ar     19 A19         0.1003
     495 N180       61.0690  -42.7760    8.6000 N.ar     19 A19        -0.2879
     496 H535       62.1140  -38.6930    7.1290 H        19 A19         0.1048
     497 H536       60.3880  -39.5630   12.0310 H        19 A19         0.1438
     498 H537       60.7790  -38.0300   11.3610 H        19 A19         0.1438
     499 H538       60.2860  -44.1190   10.0840 H        19 A19         0.1030
     500 H539       61.8330  -43.1910    6.6430 H        19 A19         0.0840
     501 H540       61.8930  -45.2770    8.9450 H        19 A19         0.0335
     502 H541       63.2430  -44.7520    7.8550 H        19 A19         0.0335
     503 H542       61.6380  -46.9920    7.4060 H        19 A19         0.0621
     504 H543       60.0030  -45.6500    5.5630 H        19 A19         0.0646
     505 H544       58.1920  -45.8670    7.3900 H        19 A19         0.0591
     506 H545       59.0600  -47.3810    6.9450 H        19 A19         0.0591
     507 H546       63.4370  -46.0830    6.1000 H        19 A19         0.2099
@<TRIPOS>BOND
       1       27       16 1
       2       28       16 1
       3       16       29 1
       4       16       15 1
       5       14       13 2
       6       13       15 ar
       7       13       12 ar
       8       15       17 ar
       9       19       17 1
      10       17        9 ar
      11       12       18 1
      12       12       10 ar
      13       25        1 1
      14       30        2 1
      15        2        1 1
      16        9       10 ar
      17        9        8 1
      18        4        8 1
      19        4        3 1
      20       10       11 2
      21        1        3 1
      22        1       26 1
      23       47       46 2
      24       20        8 1
      25        8        7 1
      26       60       49 1
      27        3       24 1
      28        3        5 1
      29       62       49 1
      30       46       45 ar
      31       46       48 ar
      32       51       45 1
      33       49       48 1
      34       49       61 1
      35       85       74 1
      36       23        5 1
      37       45       43 ar
      38       86       76 1
      39       48       50 ar
      40        5        7 1
      41        5        6 1
      42        7       21 1
      43        7       22 1
      44       81       80 2
      45       74       80 ar
      46       74       75 ar
      47       76       75 1
      48       76       87 1
      49       80       79 ar
      50      225      196 1
      51       43       44 2
      52       43       42 ar
      53      227      226 2
      54       75       77 ar
      55      190      166 1
      56      224      196 1
      57       50       42 ar
      58       50       52 1
      59      194      193 2
      60      151      141 1
      61        6       31 1
      62      152      141 1
      63      223      198 1
      64      141      140 1
      65       42       41 1
      66      196      198 1
      67      196      197 1
      68      169      193 1
      69      169      168 1
      70       33       31 2
      71       79       78 ar
      72       79       82 ar
      73       77       78 ar
      74      166      167 1
      75      166      164 1
      76      166      168 1
      77      198      199 1
      78      198      200 1
      79      192      164 1
      80      116      110 1
      81      193      197 1
      82      193      195 1
      83      191      164 1
      84      226      228 1
      85      226      201 1
      86      226      230 1
      87      254      229 1
      88      167      171 1
      89       78       84 ar
      90       31       35 1
      91       31       32 1
      92      140      142 ar
      93      140      139 ar
      94      255      229 1
      95      150      139 1
      96       82       83 ar
      97      164      165 1
      98       37       41 1
      99       37       36 1
     100      109      108 2
     101      186      171 1
     102      168      189 1
     103      168      170 1
     104       58       34 1
     105       41       53 1
     106       41       40 1
     107       35       34 1
     108      201      200 1
     109      142      143 ar
     110      139      145 ar
     111      222      200 1
     112      229      230 1
     113      229      231 1
     114      110      108 ar
     115      110      111 ar
     116      199      203 1
     117      200      202 1
     118      171      170 1
     119      171      181 1
     120      112      111 2
     121      154      138 1
     122      108      107 ar
     123       84       83 ar
     124       84       73 1
     125      182      173 1
     126       34       36 1
     127       34       59 1
     128      158      133 1
     129       83       88 1
     130       54       40 1
     131      174      173 ar
     132      174      175 ar
     133      111      113 ar
     134      258      256 2
     135       36       57 1
     136       36       38 1
     137      219      203 1
     138      170      188 1
     139      170      187 1
     140      143      144 ar
     141      143      149 ar
     142      134      138 1
     143      134      133 1
     144       40       55 1
     145       40       38 1
     146      145      146 2
     147      145      144 ar
     148       89       73 1
     149      173      172 ar
     150      253      231 1
     151      165      161 1
     152      203      202 1
     153      203      214 1
     154      162      161 2
     155      138      149 1
     156      138      137 1
     157      136      161 1
     158      136      135 1
     159      181      175 ar
     160      181      180 ar
     161      231      232 1
     162      231      233 1
     163      133      135 1
     164      133      131 1
     165       73       69 1
     166       73       72 1
     167      175      176 ar
     168      144      147 ar
     169      202      220 1
     170      202      221 1
     171       69       68 1
     172      149      148 ar
     173      118      106 1
     174      107      106 1
     175      107      115 ar
     176      159      131 1
     177      161      163 1
     178       38       56 1
     179       38       39 1
     180      102      106 1
     181      102      101 1
     182      113      115 ar
     183      113      114 1
     184      172      177 ar
     185      232      236 1
     186      135      137 1
     187      135      157 1
     188      217      206 1
     189      106      105 1
     190      256      257 1
     191      256      234 1
     192      256      260 1
     193      252      233 1
     194      125      114 1
     195      214      208 ar
     196      214      213 ar
     197      131      160 1
     198      131      132 1
     199      180      185 1
     200      180      179 ar
     201      233      234 1
     202      233      235 1
     203      115      117 1
     204      137      156 1
     205      137      155 1
     206      207      208 ar
     207      207      205 ar
     208      148      147 ar
     209      148      153 1
     210      176      177 ar
     211      176      179 ar
     212      122      101 1
     213       93       68 1
     214      218      213 1
     215       94       66 1
     216      177      178 1
     217       68       66 1
     218       68       70 1
     219      208      209 ar
     220       72       91 1
     221       72       90 1
     222       72       70 1
     223      114      126 1
     224      114      127 1
     225      213      212 ar
     226      206      205 1
     227      206      216 1
     228      123       99 1
     229       39       63 1
     230      101       99 1
     231      101      103 1
     232      205      204 ar
     233      249      236 1
     234      260      259 1
     235      236      235 1
     236      236      237 1
     237       66       67 1
     238       66       95 1
     239      132      128 1
     240      105      120 1
     241      105      103 1
     242      105      119 1
     243       70       71 1
     244       70       92 1
     245       99      100 1
     246       99      124 1
     247      235      250 1
     248      235      251 1
     249      248      244 1
     250       67       63 1
     251      178      183 1
     252      178      184 1
     253      104      103 1
     254      104      128 1
     255      209      212 ar
     256      209      210 ar
     257       71       96 1
     258       65       63 2
     259      103      121 1
     260       63       64 1
     261      204      210 ar
     262      204      215 1
     263      237      244 ar
     264      237      238 ar
     265      244      243 ar
     266      100       96 1
     267      259      288 1
     268      259      287 1
     269      259      261 1
     270      210      211 2
     271      128      129 2
     272      128      130 1
     273      239      238 2
     274      285      263 1
     275      238      240 ar
     276      243      247 1
     277      243      241 ar
     278       96       97 2
     279       96       98 1
     280      281      276 1
     281      283      265 1
     282      240      241 ar
     283      241      242 1
     284      261      263 1
     285      261      262 1
     286      261      286 1
     287      263      265 1
     288      263      264 1
     289      262      266 1
     290      276      275 ar
     291      276      277 ar
     292      291      289 2
     293      265      266 1
     294      265      284 1
     295      242      246 1
     296      242      245 1
     297      275      272 ar
     298      264      289 1
     299      266      277 1
     300      266      282 1
     301      277      271 ar
     302      289      290 1
     303      289      293 1
     304      272      271 ar
     305      272      273 ar
     306      271      270 ar
     307      309      305 1
     308      310      306 1
     309      274      273 2
     310      273      267 ar
     311      293      292 1
     312      305      308 1
     313      305      304 1
     314      306      304 ar
     315      306      307 ar
     316      270      268 ar
     317      311      307 1
     318      317      292 1
     319      267      268 ar
     320      267      278 1
     321      304      303 ar
     322      307      300 ar
     323      292      318 1
     324      292      294 1
     325      268      269 1
     326      295      294 1
     327      295      299 1
     328      303      301 ar
     329      300      301 ar
     330      300      299 1
     331      294      316 1
     332      294      296 1
     333      348      337 1
     334      269      280 1
     335      269      279 1
     336      315      296 1
     337      301      302 2
     338      299      312 1
     339      299      298 1
     340      296      298 1
     341      296      297 1
     342      335      334 2
     343      350      337 1
     344      337      349 1
     345      337      336 1
     346      298      313 1
     347      298      314 1
     348      297      319 1
     349      334      336 ar
     350      334      333 ar
     351      321      319 2
     352      336      338 ar
     353      319      320 1
     354      319      323 1
     355      339      333 1
     356      333      331 ar
     357      338      340 1
     358      338      330 ar
     359      370      367 1
     360      371      367 1
     361      323      322 1
     362      504      480 1
     363      367      366 1
     364      331      330 ar
     365      331      332 2
     366      483      507 1
     367      483      482 1
     368      330      329 1
     369      346      322 1
     370      322      347 1
     371      322      324 1
     372      325      329 1
     373      325      324 1
     374      500      485 1
     375      480      482 1
     376      480      481 1
     377      480      478 1
     378      403      398 1
     379      464      455 1
     380      366      365 ar
     381      366      368 ar
     382      342      328 1
     383      482      503 1
     384      482      484 1
     385      506      478 1
     386      329      328 1
     387      329      341 1
     388      481      485 1
     389      496      487 1
     390      365      363 ar
     391      372      368 1
     392      324      345 1
     393      324      326 1
     394      505      478 1
     395      478      479 1
     396      485      484 1
     397      485      495 1
     398      488      487 ar
     399      488      489 ar
     400      392      393 ar
     401      392      397 ar
     402      398      404 1
     403      398      397 1
     404      402      393 1
     405      328      326 1
     406      328      343 1
     407      368      369 ar
     408      455      456 ar
     409      455      454 ar
     410      502      484 1
     411      487      486 ar
     412      484      501 1
     413      456      457 ar
     414      344      326 1
     415      393      394 ar
     416      326      327 1
     417      397      396 ar
     418      454      459 ar
     419      363      364 2
     420      363      362 ar
     421      489      495 ar
     422      489      490 ar
     423      495      494 ar
     424      468      453 1
     425      426      425 2
     426      479      475 1
     427      369      362 ar
     428      369      373 1
     429      486      491 ar
     430      476      475 2
     431      457      463 ar
     432      457      458 ar
     433      362      361 1
     434      472      448 1
     435      394      395 ar
     436      451      475 1
     437      451      450 1
     438      449      453 1
     439      449      448 1
     440      459      458 ar
     441      459      460 1
     442      396      395 ar
     443      396      399 ar
     444      327      351 1
     445      453      463 1
     446      453      452 1
     447      427      425 ar
     448      427      428 ar
     449      425      424 ar
     450      475      477 1
     451      432      429 1
     452      494      499 1
     453      494      493 ar
     454      490      491 ar
     455      490      493 ar
     456      436      423 1
     457      466      460 1
     458      463      462 ar
     459      491      492 1
     460      458      461 ar
     461      395      401 ar
     462      448      450 1
     463      448      446 1
     464      353      351 2
     465      460      465 1
     466      470      452 1
     467      450      452 1
     468      450      471 1
     469      379      354 1
     470      399      400 ar
     471      357      361 1
     472      357      356 1
     473      452      469 1
     474      361      374 1
     475      361      360 1
     476      429      428 1
     477      429      433 1
     478      351      355 1
     479      351      352 1
     480      428      430 ar
     481      438      422 1
     482      424      423 1
     483      424      431 ar
     484      423      422 1
     485      423      419 1
     486      473      446 1
     487      355      354 1
     488      437      422 1
     489      462      461 ar
     490      462      467 1
     491      492      498 1
     492      492      497 1
     493      422      420 1
     494      446      474 1
     495      446      447 1
     496      375      360 1
     497      354      356 1
     498      354      380 1
     499      401      400 ar
     500      401      391 1
     501      400      405 1
     502      419      418 1
     503      360      376 1
     504      360      358 1
     505      356      378 1
     506      356      358 1
     507      431      430 ar
     508      431      435 1
     509      430      434 1
     510      406      391 1
     511      447      443 1
     512      440      418 1
     513      391      387 1
     514      391      390 1
     515      387      386 1
     516      358      377 1
     517      358      359 1
     518      418      420 1
     519      418      416 1
     520      420      421 1
     521      420      439 1
     522      421      443 1
     523      443      445 2
     524      443      444 1
     525      359      381 1
     526      390      408 1
     527      390      407 1
     528      390      388 1
     529      411      384 1
     530      441      416 1
     531      386      410 1
     532      386      384 1
     533      386      388 1
     534      416      417 1
     535      416      442 1
     536      384      385 1
     537      384      412 1
     538      385      381 1
     539      417      413 1
     540      388      389 1
     541      388      409 1
     542      383      381 2
     543      381      382 1
     544      389      413 1
     545      413      415 2
     546      413      414 1
