@<TRIPOS>MOLECULE
1z04_EFGH.pdb
   507    546     16
SMALL
USER_CHARGES


@<TRIPOS>ATOM
       1 C469       66.3780  -30.7850    9.2080 C.3       4 T4          0.0729
       2 O283       65.5630  -30.8610   10.3900 O.3       4 T4         -0.3924
       3 C470       65.9780  -31.8030    8.1190 C.3       4 T4          0.1107
       4 O284       65.5360  -33.0670    8.7160 O.3       4 T4         -0.3483
       5 C471       64.8100  -31.3360    7.2280 C.3       4 T4          0.0982
       6 O285       65.0990  -31.5040    5.8380 O.3       4 T4         -0.3213
       7 C472       63.6380  -32.2000    7.6740 C.3       4 T4          0.0221
       8 C473       64.3250  -33.4920    8.0870 C.3       4 T4          0.1422
       9 N181       63.5600  -34.2760    9.0660 N.ar      4 T4         -0.2737
      10 C474       63.0930  -35.5200    8.7220 C.ar      4 T4          0.3313
      11 O286       63.2840  -36.0230    7.6260 O.2       4 T4         -0.2464
      12 N182       62.3820  -36.1490    9.7040 N.ar      4 T4         -0.2747
      13 C475       62.0700  -35.6620   10.9470 C.ar      4 T4          0.2568
      14 O287       61.3710  -36.3270   11.7110 O.2       4 T4         -0.2674
      15 C476       62.6170  -34.3640   11.2550 C.ar      4 T4          0.0302
      16 C477       62.3160  -33.7650   12.5940 C.3       4 T4         -0.0332
      17 C478       63.2980  -33.7280   10.2930 C.ar      4 T4          0.0199
      18 H547       62.0500  -37.0780    9.4650 H         4 T4          0.1734
      19 H548       63.7570  -32.7480   10.4370 H         4 T4          0.0816
      20 H549       64.6110  -34.0640    7.1720 H         4 T4          0.0840
      21 H550       63.1480  -31.7120    8.5420 H         4 T4          0.0335
      22 H551       62.8770  -32.3770    6.8940 H         4 T4          0.0335
      23 H552       64.6090  -30.2680    7.4680 H         4 T4          0.0628
      24 H553       66.8470  -32.0080    7.4560 H         4 T4          0.0646
      25 H554       67.4350  -30.9960    9.4930 H         4 T4          0.0584
      26 H555       66.3660  -29.7560    8.7840 H         4 T4          0.0584
      27 H556       61.2930  -33.3270   12.6200 H         4 T4          0.0280
      28 H557       63.0500  -32.9720   12.8520 H         4 T4          0.0280
      29 H558       62.3700  -34.5470   13.3870 H         4 T4          0.0280
      30 H559       65.7070  -31.7800   10.6570 H         4 T4          0.2095
      31  P46       64.1450  -30.9110    4.7370 P.3       5 T5          0.2130
      32 O288       64.9950  -30.5780    3.5700 O.2       5 T5         -0.5172
      33 O289       63.4060  -29.7710    5.3090 O.co2     5 T5         -0.4373
      34 C479       63.8080  -33.2870    3.8370 C.3       5 T5          0.0836
      35 O290       63.1710  -32.0950    4.3750 O.3       5 T5         -0.3248
      36 C480       62.8050  -34.2760    3.2400 C.3       5 T5          0.1114
      37 O291       62.3020  -35.1500    4.2920 O.3       5 T5         -0.3483
      38 C481       61.5630  -33.6560    2.5560 C.3       5 T5          0.0983
      39 O292       61.3610  -34.1880    1.2580 O.3       5 T5         -0.3213
      40 C482       60.4270  -33.9680    3.5230 C.3       5 T5          0.0221
      41 C483       60.8950  -35.2450    4.2250 C.3       5 T5          0.1422
      42 N183       60.4100  -35.3630    5.5990 N.ar      5 T5         -0.2737
      43 C484       60.0150  -36.5820    6.0980 C.ar      5 T5          0.3313
      44 O293       60.0660  -37.6200    5.4630 O.2       5 T5         -0.2464
      45 N184       59.5380  -36.5390    7.3780 N.ar      5 T5         -0.2747
      46 C485       59.4550  -35.4360    8.1970 C.ar      5 T5          0.2568
      47 O294       58.9350  -35.5300    9.3000 O.2       5 T5         -0.2674
      48 C486       59.9960  -34.2170    7.6410 C.ar      5 T5          0.0302
      49 C487       60.0830  -33.0070    8.5210 C.3       5 T5         -0.0332
      50 C488       60.4930  -34.2580    6.4060 C.ar      5 T5          0.0199
      51 H560       59.2010  -37.4260    7.7320 H         5 T5          0.1734
      52 H561       61.1740  -33.4900    6.0130 H         5 T5          0.0816
      53 H562       60.6630  -36.1340    3.5870 H         5 T5          0.0840
      54 H563       60.3650  -33.1060    4.2180 H         5 T5          0.0335
      55 H564       59.4340  -34.1090    3.0690 H         5 T5          0.0335
      56 H565       61.7130  -32.5560    2.4790 H         5 T5          0.0628
      57 H566       63.3200  -34.9350    2.5080 H         5 T5          0.0646
      58 H567       64.4010  -33.8140    4.6240 H         5 T5          0.0591
      59 H568       64.5020  -33.0250    2.9990 H         5 T5          0.0591
      60 H569       60.3170  -32.0840    7.9420 H         5 T5          0.0280
      61 H570       60.8840  -33.1360    9.2780 H         5 T5          0.0280
      62 H571       59.1280  -32.8420    9.0650 H         5 T5          0.0280
      63  P47       60.1000  -34.0230    0.3620 P.3       6 G6          0.2130
      64 O295       60.5000  -33.9190   -1.0460 O.2       6 G6         -0.5172
      65 O296       59.2170  -32.9300    0.8530 O.co2     6 G6         -0.4373
      66 C489       60.0980  -36.6180    0.5500 C.3       6 G6          0.0836
      67 O297       59.3330  -35.3790    0.5930 O.3       6 G6         -0.3248
      68 C490       59.2740  -37.8300    1.0030 C.3       6 G6          0.1114
      69 O298       58.9650  -37.7220    2.4270 O.3       6 G6         -0.3484
      70 C491       57.9180  -37.9280    0.2830 C.3       6 G6          0.0983
      71 O299       57.6250  -39.2570   -0.1600 O.3       6 G6         -0.3213
      72 C492       56.9280  -37.4660    1.3400 C.3       6 G6          0.0220
      73 C493       57.5780  -37.9630    2.6210 C.3       6 G6          0.1408
      74 N185       55.1460  -38.2070    7.0650 N.ar      6 G6         -0.2934
      75 C494       55.4220  -39.2030    6.1710 C.ar      6 G6          0.1950
      76 N186       54.9620  -40.3940    6.4720 N.pl3     6 G6         -0.3289
      77 N187       56.1040  -39.0220    5.0570 N.ar      6 G6         -0.1963
      78 C495       56.4820  -37.7480    4.8860 C.ar      6 G6          0.1711
      79 C496       56.2680  -36.6650    5.7240 C.ar      6 G6          0.1721
      80 C497       55.5670  -36.8970    6.9360 C.ar      6 G6          0.2803
      81 O300       55.3220  -36.0200    7.7900 O.2       6 G6         -0.2654
      82 N188       56.7750  -35.4860    5.1620 N.ar      6 G6         -0.2286
      83 C498       57.2940  -35.8930    4.0150 C.ar      6 G6          0.1004
      84 N189       57.1460  -37.2400    3.8070 N.ar      6 G6         -0.2878
      85 H572       54.6390  -38.4470    7.9000 H         6 G6          0.1716
      86 H573       55.1550  -41.1090    5.8060 H         6 G6          0.1451
      87 H574       54.3560  -40.5530    7.2510 H         6 G6          0.1451
      88 H575       57.8070  -35.2780    3.2730 H         6 G6          0.1030
      89 H576       57.4410  -39.0650    2.7200 H         6 G6          0.0840
      90 H577       56.8980  -36.3560    1.3240 H         6 G6          0.0335
      91 H578       55.9060  -37.8630    1.2190 H         6 G6          0.0335
      92 H579       57.9510  -37.2160   -0.5790 H         6 G6          0.0628
      93 H580       59.8420  -38.7720    0.8410 H         6 G6          0.0646
      94 H581       60.9970  -36.5850    1.2140 H         6 G6          0.0591
      95 H582       60.4450  -36.8080   -0.4930 H         6 G6          0.0591
      96  P48       56.3450  -39.4770   -1.0580 P.3       7 T7          0.2130
      97 O301       56.6330  -40.5790   -2.0000 O.2       7 T7         -0.5172
      98 O302       55.9320  -38.1700   -1.6220 O.co2     7 T7         -0.4373
      99 C499       55.2290  -41.3420    0.3740 C.3       7 T7          0.0836
     100 O303       55.2650  -39.9400    0.0070 O.3       7 T7         -0.3248
     101 C500       54.0860  -41.6740    1.3450 C.3       7 T7          0.1114
     102 O304       54.2970  -41.0390    2.6400 O.3       7 T7         -0.3483
     103 C501       52.6970  -41.1910    0.9040 C.3       7 T7          0.0983
     104 O305       52.0970  -42.1400    0.0140 O.3       7 T7         -0.3213
     105 C502       51.9770  -41.1890    2.2360 C.3       7 T7          0.0221
     106 C503       53.0360  -40.7650    3.2450 C.3       7 T7          0.1422
     107 N190       52.9760  -39.3480    3.6230 N.ar      7 T7         -0.2737
     108 C504       52.3140  -39.0460    4.7830 C.ar      7 T7          0.3313
     109 O306       51.7830  -39.8880    5.4980 O.2       7 T7         -0.2464
     110 N191       52.3110  -37.7260    5.1110 N.ar      7 T7         -0.2747
     111 C505       52.8650  -36.6920    4.4060 C.ar      7 T7          0.2568
     112 O307       52.8800  -35.5660    4.9050 O.2       7 T7         -0.2674
     113 C506       53.4380  -37.0530    3.1330 C.ar      7 T7          0.0302
     114 C507       53.9140  -35.9390    2.2530 C.3       7 T7         -0.0332
     115 C508       53.4600  -38.3530    2.7960 C.ar      7 T7          0.0199
     116 H583       51.8540  -37.5220    5.9920 H         7 T7          0.1734
     117 H584       53.9260  -38.7220    1.8720 H         7 T7          0.0816
     118 H585       52.9690  -41.4370    4.1350 H         7 T7          0.0840
     119 H586       51.1100  -40.5100    2.2270 H         7 T7          0.0335
     120 H587       51.6310  -42.2050    2.5070 H         7 T7          0.0335
     121 H588       52.7980  -40.1700    0.4670 H         7 T7          0.0628
     122 H589       54.0270  -42.7670    1.5260 H         7 T7          0.0646
     123 H590       56.1910  -41.6490    0.8430 H         7 T7          0.0591
     124 H591       55.0650  -41.9750   -0.5320 H         7 T7          0.0591
     125 H592       54.4100  -36.3200    1.3340 H         7 T7          0.0280
     126 H593       54.6340  -35.2840    2.7940 H         7 T7          0.0280
     127 H594       53.0600  -35.3090    1.9250 H         7 T7          0.0280
     128  P49       50.7360  -41.7600   -0.7070 P.3       8 G8          0.2130
     129 O308       50.6330  -42.5460   -1.9540 O.2       8 G8         -0.5172
     130 O309       50.5880  -40.2930   -0.7990 O.co2     8 G8         -0.4373
     131 C509       49.6540  -43.4820    1.0330 C.3       8 G8          0.0836
     132 O310       49.6190  -42.2650    0.2720 O.3       8 G8         -0.3248
     133 C510       48.6930  -43.4150    2.2350 C.3       8 G8          0.1114
     134 O311       48.9690  -42.2670    3.1030 O.3       8 G8         -0.3484
     135 C511       47.2410  -43.2430    1.7650 C.3       8 G8          0.0983
     136 O312       46.3380  -44.0430    2.5270 O.3       8 G8         -0.3213
     137 C512       46.9880  -41.7540    1.9220 C.3       8 G8          0.0220
     138 C513       47.8320  -41.3930    3.1370 C.3       8 G8          0.1408
     139 N192       48.2260  -36.9810    5.6500 N.ar      8 G8         -0.2934
     140 C514       47.6330  -38.1430    6.0590 C.ar      8 G8          0.1950
     141 N193       47.0830  -38.1180    7.2360 N.pl3     8 G8         -0.3289
     142 N194       47.5760  -39.2360    5.3170 N.ar      8 G8         -0.1963
     143 C515       48.1810  -39.0780    4.1190 C.ar      8 G8          0.1711
     144 C516       48.7790  -37.9440    3.6180 C.ar      8 G8          0.1721
     145 C517       48.8360  -36.7810    4.4230 C.ar      8 G8          0.2803
     146 O313       49.3490  -35.7030    4.1130 O.2       8 G8         -0.2654
     147 N195       49.2480  -38.1580    2.3310 N.ar      8 G8         -0.2286
     148 C518       48.9420  -39.4030    2.0770 C.ar      8 G8          0.1004
     149 N196       48.3050  -40.0200    3.1310 N.ar      8 G8         -0.2878
     150 H595       48.2390  -36.2070    6.2940 H         8 G8          0.1716
     151 H596       47.1170  -37.3080    7.8350 H         8 G8          0.1451
     152 H597       46.5310  -38.9030    7.4910 H         8 G8          0.1451
     153 H598       49.1950  -39.9420    1.1550 H         8 G8          0.1030
     154 H599       47.2700  -41.6310    4.0710 H         8 G8          0.0840
     155 H600       47.3770  -41.2490    1.0110 H         8 G8          0.0335
     156 H601       45.9360  -41.4550    2.0330 H         8 G8          0.0335
     157 H602       47.1930  -43.5230    0.6850 H         8 G8          0.0628
     158 H603       48.7690  -44.3360    2.8500 H         8 G8          0.0646
     159 H604       50.6750  -43.7120    1.4070 H         8 G8          0.0591
     160 H605       49.3360  -44.3280    0.3830 H         8 G8          0.0591
     161  P50       44.7880  -43.9830    2.2630 P.3       9 A9          0.2130
     162 O314       44.2300  -45.3260    2.5140 O.3       9 A9         -0.4373
     163 O315       44.5260  -43.3620    0.9470 O.co2     9 A9         -0.5172
     164 C519       44.6330  -43.3260    4.7780 C.3       9 A9          0.0836
     165 O316       44.2990  -42.9920    3.4050 O.3       9 A9         -0.3248
     166 C520       43.9420  -42.4170    5.8140 C.3       9 A9          0.1114
     167 O317       44.4820  -41.0580    5.7710 O.3       9 A9         -0.3484
     168 C521       42.4340  -42.2740    5.5830 C.3       9 A9          0.0983
     169 O318       41.7010  -42.2830    6.8130 O.3       9 A9         -0.3213
     170 C522       42.3000  -40.9470    4.8540 C.3       9 A9          0.0220
     171 C523       43.4620  -40.1200    5.4120 C.3       9 A9          0.1408
     172 N197       45.3040  -35.3770    4.4750 N.ar      9 A9         -0.2188
     173 C524       44.6540  -35.8760    5.5300 C.ar      9 A9          0.1205
     174 N198       44.1970  -37.1130    5.7190 N.ar      9 A9         -0.2159
     175 C525       44.4040  -37.8850    4.6340 C.ar      9 A9          0.1673
     176 C526       45.0210  -37.5040    3.4550 C.ar      9 A9          0.1473
     177 C527       45.5210  -36.1840    3.4100 C.ar      9 A9          0.1472
     178 N199       46.2490  -35.6930    2.3930 N.pl3     9 A9         -0.3413
     179 N200       45.0760  -38.5590    2.5530 N.ar      9 A9         -0.2306
     180 C528       44.4960  -39.5430    3.1980 C.ar      9 A9          0.1003
     181 N201       44.0700  -39.2070    4.4570 N.ar      9 A9         -0.2879
     182 H606       44.5170  -35.1870    6.3720 H         9 A9          0.1048
     183 H607       46.5330  -34.7350    2.3970 H         9 A9          0.1438
     184 H608       46.5240  -36.2860    1.6370 H         9 A9          0.1438
     185 H609       44.3530  -40.5570    2.8100 H         9 A9          0.1030
     186 H610       43.1440  -39.6040    6.3470 H         9 A9          0.0840
     187 H611       42.4320  -41.1390    3.7690 H         9 A9          0.0335
     188 H612       41.3310  -40.4420    5.0120 H         9 A9          0.0335
     189 H613       42.1330  -43.1160    4.9140 H         9 A9          0.0628
     190 H614       44.1040  -42.8220    6.8340 H         9 A9          0.0646
     191 H615       45.7330  -43.2600    4.9420 H         9 A9          0.0591
     192 H616       44.3140  -44.3710    5.0090 H         9 A9          0.0591
     193  P51       40.1600  -42.6280    6.8010 P.3      10 G10         0.2130
     194 O319       39.7590  -43.0460    8.1630 O.3      10 G10        -0.4373
     195 O320       39.8770  -43.5510    5.6810 O.co2    10 G10        -0.5172
     196 C529       39.6310  -40.1570    7.4710 C.3      10 G10         0.0836
     197 O321       39.5170  -41.2150    6.4870 O.3      10 G10        -0.3248
     198 C530       39.1500  -38.7970    6.9310 C.3      10 G10         0.1114
     199 O322       40.1650  -38.2420    6.0330 O.3      10 G10        -0.3484
     200 C531       37.8580  -38.8400    6.0670 C.3      10 G10         0.0983
     201 O323       36.8160  -37.9970    6.5830 O.3      10 G10        -0.3213
     202 C532       38.3260  -38.3380    4.6980 C.3      10 G10         0.0220
     203 C533       39.4930  -37.4390    5.0830 C.3      10 G10         0.1408
     204 N202       42.3040  -33.9660    2.5960 N.ar     10 G10        -0.2934
     205 C534       41.5290  -33.8100    3.7160 C.ar     10 G10         0.1950
     206 N203       41.4920  -32.6030    4.2150 N.pl3    10 G10        -0.3289
     207 N204       40.8390  -34.7850    4.2730 N.ar     10 G10        -0.1963
     208 C535       40.9990  -35.9600    3.6460 C.ar     10 G10         0.1711
     209 C536       41.7540  -36.2230    2.5070 C.ar     10 G10         0.1721
     210 C537       42.4760  -35.1500    1.9240 C.ar     10 G10         0.2803
     211 O324       43.2140  -35.1790    0.9100 O.2      10 G10        -0.2654
     212 N205       41.6410  -37.5650    2.1550 N.ar     10 G10        -0.2286
     213 C538       40.8570  -38.0820    3.0670 C.ar     10 G10         0.1004
     214 N206       40.4180  -37.1570    3.9820 N.ar     10 G10        -0.2878
     215 H617       42.7960  -33.1730    2.2370 H        10 G10         0.1716
     216 H618       41.9800  -31.8320    3.8020 H        10 G10         0.1451
     217 H619       40.9230  -32.4850    5.0240 H        10 G10         0.1451
     218 H620       40.5700  -39.1330    3.1370 H        10 G10         0.1030
     219 H621       39.1400  -36.5140    5.6000 H        10 G10         0.0840
     220 H622       38.6580  -39.2210    4.1090 H        10 G10         0.0335
     221 H623       37.5410  -37.7940    4.1420 H        10 G10         0.0335
     222 H624       37.5220  -39.9010    6.0000 H        10 G10         0.0628
     223 H625       39.0030  -38.0750    7.7620 H        10 G10         0.0646
     224 H626       40.6830  -40.0360    7.8270 H        10 G10         0.0591
     225 H627       39.0020  -40.4130    8.3550 H        10 G10         0.0591
     226  P52       35.3440  -38.1950    6.0200 P.3      11 C11         0.2130
     227 O325       34.4490  -38.5700    7.1360 O.3      11 C11        -0.4373
     228 O326       35.3950  -39.0740    4.8300 O.co2    11 C11        -0.5172
     229 C539       34.5550  -35.7430    6.5020 C.3      11 C11         0.0836
     230 O327       34.9860  -36.7350    5.5330 O.3      11 C11        -0.3248
     231 C540       34.7680  -34.3070    5.9980 C.3      11 C11         0.1114
     232 O328       36.1940  -34.0530    5.7740 O.3      11 C11        -0.3483
     233 C541       34.1460  -34.0070    4.6200 C.3      11 C11         0.0983
     234 O329       32.7460  -33.7860    4.6340 O.3      11 C11        -0.3213
     235 C542       34.9240  -32.7590    4.2460 C.3      11 C11         0.0221
     236 C543       36.3550  -33.1390    4.6770 C.3      11 C11         0.1423
     237 N207       37.1630  -33.7760    3.5990 N.ar     11 C11        -0.2725
     238 C544       38.0680  -33.0360    2.8350 C.ar     11 C11         0.3521
     239 O330       38.2700  -31.8400    3.0950 O.2      11 C11        -0.2444
     240 N208       38.7220  -33.6170    1.8050 N.ar     11 C11        -0.1783
     241 C545       38.5000  -34.9040    1.5210 C.ar     11 C11         0.1230
     242 N209       39.1640  -35.4350    0.5020 N.pl3    11 C11        -0.3430
     243 C546       37.5960  -35.6960    2.2770 C.ar     11 C11        -0.0056
     244 C547       36.9460  -35.0990    3.2840 C.ar     11 C11         0.0151
     245 H628       39.7620  -34.8260   -0.0250 H        11 C11         0.1437
     246 H629       38.9890  -36.3560    0.1750 H        11 C11         0.1437
     247 H630       37.4500  -36.7440    2.0250 H        11 C11         0.0666
     248 H631       36.2630  -35.6430    3.9440 H        11 C11         0.0812
     249 H632       36.8680  -32.2380    5.0850 H        11 C11         0.0840
     250 H633       34.8530  -32.5250    3.1670 H        11 C11         0.0335
     251 H634       34.5950  -31.8810    4.8430 H        11 C11         0.0335
     252 H635       34.3840  -34.8500    3.9380 H        11 C11         0.0628
     253 H636       34.4060  -33.5620    6.7390 H        11 C11         0.0646
     254 H637       35.1050  -35.8360    7.4700 H        11 C11         0.0591
     255 H638       33.4680  -35.8800    6.7120 H        11 C11         0.0591
     256  P53       31.8030  -32.9670    5.5670 P.3      12 G12         0.2130
     257 O331       32.5150  -31.8910    6.2860 O.2      12 G12        -0.5172
     258 O332       30.9940  -33.9140    6.3650 O.co2    12 G12        -0.4373
     259 C548       30.9320  -30.9490    4.1340 C.3      12 G12         0.0836
     260 O333       30.8560  -32.3480    4.4740 O.3      12 G12        -0.3248
     261 C549       30.4680  -30.6930    2.6930 C.3      12 G12         0.1114
     262 O334       31.5750  -30.9180    1.7740 O.3      12 G12        -0.3484
     263 C550       29.3210  -31.6030    2.2080 C.3      12 G12         0.0983
     264 O335       28.3520  -30.8820    1.4420 O.3      12 G12        -0.3213
     265 C551       30.0320  -32.6670    1.3800 C.3      12 G12         0.0220
     266 C552       31.2410  -31.9150    0.8120 C.3      12 G12         0.1408
     267 N210       35.3520  -32.7690   -2.0720 N.ar     12 G12        -0.2934
     268 C553       34.3560  -31.8510   -2.2370 C.ar     12 G12         0.1950
     269 N211       34.4680  -31.0140   -3.2300 N.pl3    12 G12        -0.3289
     270 N212       33.3000  -31.7630   -1.4570 N.ar     12 G12        -0.1963
     271 C554       33.3400  -32.6450   -0.4400 C.ar     12 G12         0.1711
     272 C555       34.2810  -33.6190   -0.1930 C.ar     12 G12         0.1721
     273 C556       35.4150  -33.7160   -1.0590 C.ar     12 G12         0.2803
     274 O336       36.3520  -34.5050   -0.9840 O.2      12 G12        -0.2654
     275 N213       33.9720  -34.3260    0.9680 N.ar     12 G12        -0.2286
     276 C557       32.8800  -33.7430    1.4100 C.ar     12 G12         0.1004
     277 N214       32.4320  -32.7360    0.5880 N.ar     12 G12        -0.2878
     278 H639       36.1400  -32.7500   -2.7020 H        12 G12         0.1716
     279 H640       35.2690  -31.0070   -3.8430 H        12 G12         0.1451
     280 H641       33.7330  -30.3570   -3.3400 H        12 G12         0.1451
     281 H642       32.3600  -33.9870    2.3410 H        12 G12         0.1030
     282 H643       30.9400  -31.3660   -0.1090 H        12 G12         0.0840
     283 H644       30.3570  -33.4650    2.0770 H        12 G12         0.0335
     284 H645       29.4230  -33.1200    0.5790 H        12 G12         0.0335
     285 H646       28.8470  -32.0570    3.1140 H        12 G12         0.0628
     286 H647       30.1700  -29.6330    2.5730 H        12 G12         0.0646
     287 H648       31.9620  -30.5310    4.2560 H        12 G12         0.0591
     288 H649       30.2590  -30.3930    4.8230 H        12 G12         0.0591
     289  P54       27.0460  -31.6060    0.9500 P.3      13 C13         0.2130
     290 O337       25.9560  -30.6110    0.9740 O.2      13 C13        -0.5172
     291 O338       26.8430  -32.8860    1.6670 O.co2    13 C13        -0.4373
     292 C558       27.7250  -30.8800   -1.4800 C.3      13 C13         0.0836
     293 O339       27.3320  -31.9290   -0.5580 O.3      13 C13        -0.3248
     294 C559       28.6120  -31.3950   -2.6290 C.3      13 C13         0.1114
     295 O340       29.6380  -32.2870   -2.1400 O.3      13 C13        -0.3483
     296 C560       27.8870  -32.2880   -3.6530 C.3      13 C13         0.0983
     297 O341       27.3880  -31.5010   -4.7390 O.3      13 C13        -0.3213
     298 C561       28.9880  -33.2860   -4.0790 C.3      13 C13         0.0221
     299 C562       30.2260  -32.8310   -3.3010 C.3      13 C13         0.1423
     300 N215       31.1400  -33.9310   -2.9400 N.ar     13 C13        -0.2725
     301 C563       32.2410  -34.2080   -3.7410 C.ar     13 C13         0.3521
     302 O342       32.4620  -33.5060   -4.7400 O.2      13 C13        -0.2444
     303 N216       33.0570  -35.2310   -3.4240 N.ar     13 C13        -0.1783
     304 C564       32.7580  -36.0400   -2.4020 C.ar     13 C13         0.1230
     305 N217       33.5420  -37.0830   -2.1710 N.pl3    13 C13        -0.3430
     306 C565       31.6150  -35.8080   -1.5830 C.ar     13 C13        -0.0056
     307 C566       30.8320  -34.7640   -1.8910 C.ar     13 C13         0.0151
     308 H650       34.3950  -37.1640   -2.6950 H        13 C13         0.1437
     309 H651       33.3060  -37.7660   -1.4830 H        13 C13         0.1437
     310 H652       31.3990  -36.4890   -0.7670 H        13 C13         0.0666
     311 H653       29.9550  -34.4690   -1.3030 H        13 C13         0.0812
     312 H654       30.7350  -31.9950   -3.8380 H        13 C13         0.0840
     313 H655       28.6690  -34.3050   -3.7860 H        13 C13         0.0335
     314 H656       29.2170  -33.2660   -5.1580 H        13 C13         0.0335
     315 H657       27.0620  -32.8070   -3.1110 H        13 C13         0.0628
     316 H658       29.1000  -30.5540   -3.1660 H        13 C13         0.0646
     317 H659       28.3020  -30.0690   -0.9720 H        13 C13         0.0591
     318 H660       26.8160  -30.4180   -1.9280 H        13 C13         0.0591
     319  P55       26.6860  -32.1810   -5.9660 P.3      14 T14         0.2130
     320 O343       25.6530  -31.2650   -6.4980 O.2      14 T14        -0.5172
     321 O344       26.2590  -33.5670   -5.6870 O.co2    14 T14        -0.4373
     322 C567       28.8440  -31.2150   -7.1530 C.3      14 T14         0.0836
     323 O345       27.8180  -32.2270   -7.0440 O.3      14 T14        -0.3248
     324 C568       29.7360  -31.4510   -8.3820 C.3      14 T14         0.1112
     325 O346       30.7410  -32.4410   -8.0520 O.3      14 T14        -0.3504
     326 C569       28.9930  -32.0030   -9.6090 C.3      14 T14         0.0981
     327 O347       29.4350  -31.3950  -10.8230 O.3      14 T14        -0.3213
     328 C570       29.2660  -33.4940   -9.5790 C.3      14 T14         0.0197
     329 C571       30.6100  -33.6000   -8.8610 C.3      14 T14         0.1317
     330 N218       30.7480  -34.7350   -7.9500 N.am     14 T14        -0.2534
     331 C572       31.9130  -35.3960   -7.8310 C.2      14 T14         0.3107
     332 O348       32.9560  -35.0740   -8.5480 O.2      14 T14        -0.2521
     333 N219       31.9820  -36.4010   -6.9700 N.am     14 T14        -0.2394
     334 C573       30.9690  -36.8380   -6.1240 C.2      14 T14         0.2292
     335 O349       31.1640  -37.7840   -5.3890 O.2      14 T14        -0.2747
     336 C574       29.7450  -36.0740   -6.2390 C.3      14 T14         0.0803
     337 C575       28.5440  -36.5490   -5.4670 C.3      14 T14        -0.0484
     338 C576       29.6870  -35.0840   -7.1160 C.3      14 T14         0.0642
     339 H661       32.8470  -36.9260   -6.9500 H        14 T14         0.1591
     340 H662       28.8520  -34.3720   -7.1300 H        14 T14         0.0531
     341 H663       31.4260  -33.5420   -9.6270 H        14 T14         0.0811
     342 H664       28.4390  -33.9920   -9.0360 H        14 T14         0.0333
     343 H665       29.3220  -33.9270  -10.5880 H        14 T14         0.0333
     344 H666       27.9040  -31.8380   -9.4550 H        14 T14         0.0628
     345 H667       30.2750  -30.5220   -8.6660 H        14 T14         0.0646
     346 H668       29.4990  -31.2030   -6.2480 H        14 T14         0.0591
     347 H669       28.3890  -30.2050   -7.2550 H        14 T14         0.0591
     348 H670       28.0350  -37.3790   -6.0020 H        14 T14         0.0241
     349 H671       27.8040  -35.7270   -5.3230 H        14 T14         0.0241
     350 H672       28.8470  -36.9250   -4.4660 H        14 T14         0.0241
     351  P56       28.6300  -31.6470  -12.1580 P.3      15 C15         0.2130
     352 O350       28.6750  -30.3910  -12.9360 O.2      15 C15        -0.5172
     353 O351       27.2870  -32.1600  -11.7970 O.co2    15 C15        -0.4373
     354 C577       30.7890  -32.4050  -13.3940 C.3      15 C15         0.0836
     355 O352       29.4780  -32.7880  -12.8860 O.3      15 C15        -0.3248
     356 C578       31.7060  -33.5890  -13.7810 C.3      15 C15         0.1114
     357 O353       31.9520  -34.4590  -12.6350 O.3      15 C15        -0.3483
     358 C579       31.1640  -34.5060  -14.9010 C.3      15 C15         0.0983
     359 O354       32.1430  -34.7870  -15.9050 O.3      15 C15        -0.3213
     360 C580       30.7460  -35.7620  -14.1520 C.3      15 C15         0.0221
     361 C581       31.7750  -35.8190  -13.0240 C.3      15 C15         0.1423
     362 N220       31.3220  -36.5670  -11.8500 N.ar     15 C15        -0.2725
     363 C582       32.0790  -37.5790  -11.2610 C.ar     15 C15         0.3521
     364 O355       33.1850  -37.8860  -11.7120 O.2      15 C15        -0.2444
     365 N221       31.5750  -38.2400  -10.1990 N.ar     15 C15        -0.1783
     366 C583       30.3800  -37.9160   -9.7100 C.ar     15 C15         0.1230
     367 N222       29.9220  -38.6130   -8.6870 N.pl3    15 C15        -0.3430
     368 C584       29.5860  -36.8870  -10.2830 C.ar     15 C15        -0.0056
     369 C585       30.0950  -36.2420  -11.3430 C.ar     15 C15         0.0151
     370 H673       30.5200  -39.3340   -8.3110 H        15 C15         0.1437
     371 H674       29.0100  -38.4580   -8.3000 H        15 C15         0.1437
     372 H675       28.6270  -36.6260   -9.8470 H        15 C15         0.0666
     373 H676       29.6040  -35.3930  -11.8290 H        15 C15         0.0812
     374 H677       32.7570  -36.1740  -13.4250 H        15 C15         0.0840
     375 H678       29.7190  -35.5770  -13.7760 H        15 C15         0.0335
     376 H679       30.7320  -36.6890  -14.7500 H        15 C15         0.0335
     377 H680       30.2760  -34.0030  -15.3500 H        15 C15         0.0628
     378 H681       32.6930  -33.1970  -14.1110 H        15 C15         0.0646
     379 H682       31.3560  -31.8040  -12.6400 H        15 C15         0.0591
     380 H683       30.6610  -31.7740  -14.3050 H        15 C15         0.0591
     381  P57       31.7740  -35.7120  -17.1340 P.3      16 A16         0.2130
     382 O356       32.4390  -35.1540  -18.3300 O.2      16 A16        -0.5172
     383 O357       30.3060  -35.8920  -17.1930 O.co2    16 A16        -0.4373
     384 C586       33.8880  -37.2160  -17.0830 C.3      16 A16         0.0836
     385 O358       32.4780  -37.0940  -16.7320 O.3      16 A16        -0.3248
     386 C587       34.5510  -38.5300  -16.6190 C.3      16 A16         0.1114
     387 O359       34.4700  -38.6900  -15.1680 O.3      16 A16        -0.3484
     388 C588       33.9430  -39.8170  -17.1980 C.3      16 A16         0.0983
     389 O360       34.5580  -40.1270  -18.4560 O.3      16 A16        -0.3213
     390 C589       34.3640  -40.8300  -16.1510 C.3      16 A16         0.0220
     391 C590       34.2660  -40.0630  -14.8370 C.3      16 A16         0.1408
     392 N223       31.7600  -42.7120  -11.2660 N.ar     16 A16        -0.2188
     393 C591       32.9610  -42.8720  -11.8340 C.ar     16 A16         0.1205
     394 N224       33.5380  -42.1250  -12.7790 N.ar     16 A16        -0.2159
     395 C592       32.7250  -41.1410  -13.1940 C.ar     16 A16         0.1673
     396 C593       31.4410  -40.8880  -12.7620 C.ar     16 A16         0.1473
     397 C594       30.9690  -41.7100  -11.7110 C.ar     16 A16         0.1472
     398 N225       29.7960  -41.5380  -11.0880 N.pl3    16 A16        -0.3413
     399 N226       30.8760  -39.8160  -13.4610 N.ar     16 A16        -0.2306
     400 C595       31.8520  -39.4320  -14.2640 C.ar     16 A16         0.1003
     401 N227       32.9930  -40.1930  -14.1430 N.ar     16 A16        -0.2879
     402 H684       33.5750  -43.6950  -11.4450 H        16 A16         0.1048
     403 H685       29.4480  -40.6140  -10.9930 H        16 A16         0.1438
     404 H686       29.6050  -42.1830  -10.3420 H        16 A16         0.1438
     405 H687       31.8150  -38.5900  -14.9650 H        16 A16         0.1030
     406 H688       35.1000  -40.3790  -14.1670 H        16 A16         0.0840
     407 H689       33.7430  -41.7430  -16.1700 H        16 A16         0.0335
     408 H690       35.4230  -41.1250  -16.3220 H        16 A16         0.0335
     409 H691       32.8390  -39.6640  -17.2540 H        16 A16         0.0628
     410 H692       35.6280  -38.5240  -16.8890 H        16 A16         0.0646
     411 H693       34.4760  -36.3740  -16.6430 H        16 A16         0.0591
     412 H694       34.0110  -37.1770  -18.1940 H        16 A16         0.0591
     413  P58       33.7980  -41.0930  -19.4560 P.3      17 C17         0.2130
     414 O361       34.6100  -41.2450  -20.6830 O.2      17 C17        -0.5172
     415 O362       32.4030  -40.6250  -19.5830 O.co2    17 C17        -0.4373
     416 C596       34.8650  -43.3830  -18.6460 C.3      17 C17         0.0836
     417 O363       33.7430  -42.4750  -18.6840 O.3      17 C17        -0.3248
     418 C597       34.5960  -44.6300  -17.7710 C.3      17 C17         0.1114
     419 O364       34.2590  -44.2410  -16.4010 O.3      17 C17        -0.3483
     420 C598       33.4190  -45.5170  -18.2250 C.3      17 C17         0.0983
     421 O365       33.8720  -46.4850  -19.1800 O.3      17 C17        -0.3213
     422 C599       33.0190  -46.1920  -16.9250 C.3      17 C17         0.0221
     423 C600       33.2450  -45.1100  -15.8790 C.3      17 C17         0.1423
     424 N228       32.0340  -44.3490  -15.5300 N.ar     17 C17        -0.2725
     425 C601       31.2480  -44.7710  -14.4560 C.ar     17 C17         0.3521
     426 O366       31.5840  -45.7690  -13.7960 O.2      17 C17        -0.2444
     427 N229       30.1410  -44.0810  -14.1290 N.ar     17 C17        -0.1783
     428 C602       29.7620  -43.0350  -14.8720 C.ar     17 C17         0.1230
     429 N230       28.7250  -42.3370  -14.4490 N.pl3    17 C17        -0.3430
     430 C603       30.4810  -42.6380  -16.0300 C.ar     17 C17        -0.0056
     431 C604       31.5810  -43.3370  -16.3440 C.ar     17 C17         0.0151
     432 H695       28.3370  -42.6990  -13.6010 H        17 C17         0.1437
     433 H696       28.6950  -41.3620  -14.6490 H        17 C17         0.1437
     434 H697       30.1460  -41.7890  -16.6180 H        17 C17         0.0666
     435 H698       32.2020  -43.1030  -17.2090 H        17 C17         0.0812
     436 H699       33.6840  -45.5880  -14.9720 H        17 C17         0.0840
     437 H700       31.9750  -46.5520  -16.9560 H        17 C17         0.0335
     438 H701       33.6890  -47.0490  -16.6980 H        17 C17         0.0335
     439 H702       32.6230  -44.8430  -18.6240 H        17 C17         0.0628
     440 H703       35.5020  -45.2710  -17.7250 H        17 C17         0.0646
     441 H704       35.7650  -42.8630  -18.2390 H        17 C17         0.0591
     442 H705       35.1010  -43.7380  -19.6780 H        17 C17         0.0591
     443  P59       32.7820  -47.3830  -19.9010 P.3      18 A18         0.2130
     444 O367       33.3250  -47.8380  -21.1970 O.2      18 A18        -0.5172
     445 O368       31.4710  -46.6990  -19.8890 O.co2    18 A18        -0.4373
     446 C605       33.6870  -49.3250  -18.2930 C.3      18 A18         0.0836
     447 O369       32.6280  -48.6320  -18.9680 O.3      18 A18        -0.3248
     448 C606       33.1370  -50.2210  -17.1620 C.3      18 A18         0.1114
     449 O370       32.2540  -49.4830  -16.2340 O.3      18 A18        -0.3484
     450 C607       32.2770  -51.3560  -17.7370 C.3      18 A18         0.0983
     451 O371       32.4900  -52.5870  -17.0480 O.3      18 A18        -0.3213
     452 C608       30.8600  -50.8330  -17.5750 C.3      18 A18         0.0220
     453 C609       30.9230  -50.0270  -16.2800 C.3      18 A18         0.1408
     454 N231       27.0100  -47.7440  -13.7470 N.ar     18 A18        -0.2188
     455 C610       27.7400  -48.8270  -13.4520 C.ar     18 A18         0.1205
     456 N232       28.7480  -49.3720  -14.1420 N.ar     18 A18        -0.2159
     457 C611       29.0160  -48.6720  -15.2650 C.ar     18 A18         0.1673
     458 C612       28.3520  -47.5420  -15.6970 C.ar     18 A18         0.1473
     459 C613       27.2980  -47.0730  -14.8870 C.ar     18 A18         0.1472
     460 N233       26.5600  -46.0030  -15.2200 N.pl3    18 A18        -0.3413
     461 N234       28.8580  -47.0960  -16.9100 N.ar     18 A18        -0.2306
     462 C614       29.8180  -47.9480  -17.1860 C.ar     18 A18         0.1003
     463 N235       29.9680  -48.9280  -16.2310 N.ar     18 A18        -0.2879
     464 H706       27.4710  -49.3460  -12.5230 H        18 A18         0.1048
     465 H707       25.7120  -45.8210  -14.7180 H        18 A18         0.1438
     466 H708       26.6620  -45.6240  -16.1360 H        18 A18         0.1438
     467 H709       30.4650  -47.9040  -18.0710 H        18 A18         0.1030
     468 H710       30.8170  -50.7150  -15.4080 H        18 A18         0.0840
     469 H711       30.6530  -50.1630  -18.4380 H        18 A18         0.0335
     470 H712       30.0900  -51.6140  -17.5740 H        18 A18         0.0335
     471 H713       32.5230  -51.4640  -18.8220 H        18 A18         0.0628
     472 H714       33.9780  -50.6730  -16.5940 H        18 A18         0.0646
     473 H715       34.4300  -48.6210  -17.8590 H        18 A18         0.0591
     474 H716       34.2270  -49.9670  -19.0260 H        18 A18         0.0591
     475  P60       31.8350  -53.9320  -17.5320 P.3      19 A19         0.2130
     476 O372       32.9080  -54.9170  -17.7730 O.3      19 A19        -0.4373
     477 O373       30.8690  -53.6710  -18.6180 O.co2    19 A19        -0.5172
     478 C615       31.5880  -54.2970  -14.9340 C.3      19 A19         0.0835
     479 O374       31.0070  -54.3860  -16.2560 O.3      19 A19        -0.3248
     480 C616       30.5710  -54.6590  -13.8360 C.3      19 A19         0.1107
     481 O375       29.6080  -53.5700  -13.6710 O.3      19 A19        -0.3484
     482 C617       29.7280  -55.9060  -14.1570 C.3      19 A19         0.0877
     483 O376       29.4710  -56.7650  -13.0450 O.3      19 A19        -0.3890
     484 C618       28.4300  -55.3550  -14.7100 C.3      19 A19         0.0213
     485 C619       28.2880  -53.9880  -14.0230 C.3      19 A19         0.1408
     486 N236       24.5880  -50.4310  -14.7200 N.ar     19 A19        -0.2188
     487 C620       24.8010  -51.3020  -13.7290 C.ar     19 A19         0.1205
     488 N237       25.7630  -52.2270  -13.6150 N.ar     19 A19        -0.2159
     489 C621       26.6150  -52.1750  -14.6570 C.ar     19 A19         0.1673
     490 C622       26.5190  -51.3450  -15.7550 C.ar     19 A19         0.1473
     491 C623       25.4460  -50.4290  -15.7660 C.ar     19 A19         0.1472
     492 N238       25.2610  -49.5460  -16.7610 N.pl3    19 A19        -0.3413
     493 N239       27.5300  -51.6030  -16.6690 N.ar     19 A19        -0.2306
     494 C624       28.2310  -52.5550  -16.0950 C.ar     19 A19         0.1003
     495 N240       27.7260  -52.9520  -14.8810 N.ar     19 A19        -0.2879
     496 H717       24.0700  -51.2720  -12.9120 H        19 A19         0.1048
     497 H718       24.5900  -48.8030  -16.6630 H        19 A19         0.1438
     498 H719       25.8570  -49.5560  -17.5550 H        19 A19         0.1438
     499 H720       29.1310  -53.0190  -16.5080 H        19 A19         0.1030
     500 H721       27.7310  -54.0920  -13.0620 H        19 A19         0.0840
     501 H722       28.5430  -55.2400  -15.8100 H        19 A19         0.0335
     502 H723       27.5570  -56.0010  -14.4960 H        19 A19         0.0335
     503 H724       30.2790  -56.4760  -14.9420 H        19 A19         0.0621
     504 H725       31.0900  -54.8100  -12.8670 H        19 A19         0.0646
     505 H726       31.9650  -53.2680  -14.7190 H        19 A19         0.0591
     506 H727       32.4540  -54.9970  -14.8590 H        19 A19         0.0591
     507 H728       28.7790  -57.3880  -13.2750 H        19 A19         0.2099
@<TRIPOS>BOND
       1      444      443 2
       2      414      413 2
       3      443      445 1
       4      443      421 1
       5      443      447 1
       6      442      416 1
       7      415      413 1
       8      413      417 1
       9      413      389 1
      10      421      420 1
      11      474      446 1
      12      447      446 1
      13      471      450 1
      14      417      416 1
      15      416      441 1
      16      416      418 1
      17      439      420 1
      18      477      475 2
      19      389      388 1
      20      469      452 1
      21      382      381 2
      22      446      473 1
      23      446      448 1
      24      420      418 1
      25      420      422 1
      26      412      384 1
      27      467      462 1
      28      476      475 1
      29      418      440 1
      30      418      419 1
      31      450      452 1
      32      450      448 1
      33      450      451 1
      34      452      470 1
      35      452      453 1
      36      498      492 1
      37      475      451 1
      38      475      479 1
      39      409      388 1
      40      435      431 1
      41      388      386 1
      42      388      390 1
      43      383      381 1
      44      462      461 ar
      45      462      463 ar
      46      448      472 1
      47      448      449 1
      48      381      385 1
      49      381      359 1
      50      384      385 1
      51      384      411 1
      52      384      386 1
      53      437      422 1
      54      422      438 1
      55      422      423 1
      56      461      458 ar
      57      410      386 1
      58      492      497 1
      59      492      491 1
      60      493      494 ar
      61      493      490 ar
      62      386      387 1
      63      434      430 1
      64      499      494 1
      65      419      423 1
      66      431      430 ar
      67      431      424 ar
      68      408      390 1
      69      453      449 1
      70      453      463 1
      71      453      468 1
      72      479      478 1
      73      463      457 ar
      74      407      390 1
      75      390      391 1
      76      466      460 1
      77      494      495 ar
      78      430      428 ar
      79      359      358 1
      80      423      424 1
      81      423      436 1
      82      501      484 1
      83      491      490 ar
      84      491      486 ar
      85      490      489 ar
      86      458      457 ar
      87      458      459 ar
      88      424      425 ar
      89      377      358 1
      90      457      456 ar
      91      460      459 1
      92      460      465 1
      93      387      391 1
      94      405      400 1
      95      503      482 1
      96      478      506 1
      97      478      505 1
      98      478      480 1
      99      358      360 1
     100      358      356 1
     101      459      454 ar
     102      495      489 ar
     103      495      485 1
     104      428      429 1
     105      428      427 ar
     106      391      406 1
     107      391      401 1
     108      376      360 1
     109      486      487 ar
     110      484      502 1
     111      484      482 1
     112      484      485 1
     113      489      488 ar
     114      433      429 1
     115      425      427 ar
     116      425      426 2
     117      429      432 1
     118      380      354 1
     119      400      401 ar
     120      400      399 ar
     121      482      480 1
     122      482      483 1
     123      360      375 1
     124      360      361 1
     125      401      395 ar
     126      456      455 ar
     127      378      356 1
     128      485      481 1
     129      485      500 1
     130      480      481 1
     131      480      504 1
     132      356      354 1
     133      356      357 1
     134      454      455 ar
     135      487      488 ar
     136      487      496 1
     137      399      396 ar
     138      455      464 1
     139      374      361 1
     140      354      355 1
     141      354      379 1
     142      507      483 1
     143      395      394 ar
     144      395      396 ar
     145      361      357 1
     146      361      362 1
     147      352      351 2
     148      355      351 1
     149      394      393 ar
     150      396      397 ar
     151      351      353 1
     152      351      327 1
     153      362      369 ar
     154      362      363 ar
     155      393      402 1
     156      393      392 ar
     157      373      369 1
     158      364      363 2
     159      397      392 ar
     160      397      398 1
     161      369      368 ar
     162      363      365 ar
     163      398      403 1
     164      398      404 1
     165      327      326 1
     166      343      328 1
     167      368      372 1
     168      368      366 ar
     169      365      366 ar
     170      366      367 1
     171      341      329 1
     172      326      328 1
     173      326      344 1
     174      326      324 1
     175      328      342 1
     176      328      329 1
     177      329      325 1
     178      329      330 1
     179      367      370 1
     180      367      371 1
     181      345      324 1
     182      332      331 2
     183      324      325 1
     184      324      322 1
     185      330      331 ar
     186      330      338 1
     187      331      333 ar
     188      347      322 1
     189      322      323 1
     190      322      346 1
     191      340      338 1
     192      338      336 1
     193      323      319 1
     194      333      339 1
     195      333      334 ar
     196      320      319 2
     197      336      334 1
     198      336      337 1
     199      334      335 2
     200      348      337 1
     201      319      321 1
     202      319      297 1
     203      337      349 1
     204      337      350 1
     205      314      298 1
     206      302      301 2
     207      297      296 1
     208      298      313 1
     209      298      296 1
     210      298      299 1
     211      279      269 1
     212      312      299 1
     213      301      303 ar
     214      301      300 ar
     215      296      315 1
     216      296      294 1
     217      303      304 ar
     218      280      269 1
     219      299      300 1
     220      299      295 1
     221      269      268 1
     222      316      294 1
     223      300      307 ar
     224      278      267 1
     225      308      305 1
     226      294      295 1
     227      294      292 1
     228      304      305 1
     229      304      306 ar
     230      268      267 ar
     231      268      270 ar
     232      305      309 1
     233      267      273 ar
     234       97       96 2
     235      129      128 2
     236      318      292 1
     237      307      306 ar
     238      307      311 1
     239       98       96 1
     240      306      310 1
     241      292      317 1
     242      292      293 1
     243      270      271 ar
     244      273      274 2
     245      273      272 ar
     246       96       71 1
     247       96      100 1
     248       64       63 2
     249      130      128 1
     250      128      104 1
     251      128      132 1
     252       92       70 1
     253      293      289 1
     254      124       99 1
     255       95       66 1
     256      271      272 ar
     257      271      277 ar
     258      272      275 ar
     259       71       70 1
     260      282      266 1
     261      245      242 1
     262      100       99 1
     263      104      103 1
     264      246      242 1
     265      132      131 1
     266       70       68 1
     267       70       72 1
     268       63       67 1
     269       63       65 1
     270       63       39 1
     271       99      123 1
     272       99      101 1
     273      160      131 1
     274      121      103 1
     275      242      241 1
     276       66       67 1
     277       66       68 1
     278       66       94 1
     279      284      265 1
     280      277      266 1
     281      277      276 ar
     282      157      135 1
     283      266      265 1
     284      266      262 1
     285       93       68 1
     286      103      101 1
     287      103      105 1
     288      211      210 2
     289      163      161 2
     290      289      290 2
     291      289      264 1
     292      289      291 1
     293      275      276 ar
     294       68       69 1
     295      155      137 1
     296      131      159 1
     297      131      133 1
     298      153      148 1
     299       91       72 1
     300       39       38 1
     301       90       72 1
     302      125      114 1
     303       72       73 1
     304      101      122 1
     305      101      102 1
     306      265      283 1
     307      265      263 1
     308      276      281 1
     309      264      263 1
     310      241      240 ar
     311      241      243 ar
     312      184      178 1
     313      135      137 1
     314      135      133 1
     315      135      136 1
     316      262      261 1
     317      240      238 ar
     318      117      115 1
     319      137      156 1
     320      137      138 1
     321      210      209 ar
     322      210      204 ar
     323      127      114 1
     324      247      243 1
     325      148      147 ar
     326      148      149 ar
     327      212      209 ar
     328      212      213 ar
     329      263      261 1
     330      263      285 1
     331      119      105 1
     332      133      158 1
     333      133      134 1
     334      105      120 1
     335      105      106 1
     336      215      204 1
     337      114      126 1
     338      114      113 1
     339      161      162 1
     340      161      136 1
     341      161      165 1
     342      243      244 ar
     343      147      144 ar
     344      178      183 1
     345      178      177 1
     346       69       73 1
     347       56       38 1
     348      209      208 ar
     349       57       36 1
     350      179      180 ar
     351      179      176 ar
     352       38       36 1
     353       38       40 1
     354      286      261 1
     355      204      205 ar
     356       73       89 1
     357       73       84 1
     358      102      106 1
     359      261      259 1
     360      115      113 ar
     361      115      107 ar
     362      185      180 1
     363      238      239 2
     364      238      237 ar
     365       59       34 1
     366      213      218 1
     367      213      214 ar
     368       55       40 1
     369      134      138 1
     370      149      138 1
     371      149      143 ar
     372      113      111 ar
     373      138      154 1
     374      250      235 1
     375      180      181 ar
     376       36       34 1
     377       36       37 1
     378      106      107 1
     379      106      118 1
     380       88       83 1
     381      244      237 ar
     382      244      248 1
     383      165      164 1
     384      177      176 ar
     385      177      172 ar
     386      176      175 ar
     387       40       54 1
     388       40       41 1
     389       32       31 2
     390       53       41 1
     391      237      236 1
     392      144      143 ar
     393      144      145 ar
     394      107      108 ar
     395      208      214 ar
     396      208      207 ar
     397      205      206 1
     398      205      207 ar
     399      187      170 1
     400      216      206 1
     401       84       83 ar
     402       84       78 ar
     403       34       35 1
     404       34       58 1
     405      252      233 1
     406      214      203 1
     407       83       82 ar
     408      220      202 1
     409      146      145 2
     410      143      142 ar
     411      259      287 1
     412      259      260 1
     413      259      288 1
     414      221      202 1
     415      206      217 1
     416       41       37 1
     417       41       42 1
     418      235      233 1
     419      235      236 1
     420      235      251 1
     421       35       31 1
     422      111      112 2
     423      111      110 ar
     424      145      139 ar
     425      181      175 ar
     426      181      171 1
     427      260      256 1
     428      172      173 ar
     429      233      234 1
     430      233      231 1
     431      175      174 ar
     432      234      256 1
     433      236      249 1
     434      236      232 1
     435      202      203 1
     436      202      200 1
     437       31       33 1
     438       31        6 1
     439      164      191 1
     440      164      192 1
     441      164      166 1
     442      108      110 ar
     443      108      109 2
     444      228      226 2
     445      170      188 1
     446      170      171 1
     447      170      168 1
     448       78       77 ar
     449       78       79 ar
     450      189      168 1
     451       77       75 ar
     452      203      219 1
     453      203      199 1
     454      110      116 1
     455       82       79 ar
     456      142      140 ar
     457      171      167 1
     458      171      186 1
     459       44       43 2
     460      173      174 ar
     461      173      182 1
     462      230      226 1
     463      230      229 1
     464      256      257 2
     465      256      258 1
     466      168      166 1
     467      168      169 1
     468       42       43 ar
     469       42       50 ar
     470      139      140 ar
     471      139      150 1
     472      195      193 2
     473       79       80 ar
     474      167      166 1
     475      232      231 1
     476       86       76 1
     477      166      190 1
     478        6        5 1
     479      231      229 1
     480      231      253 1
     481      222      200 1
     482       52       50 1
     483      226      201 1
     484      226      227 1
     485      199      198 1
     486      140      141 1
     487      200      201 1
     488      200      198 1
     489       43       45 ar
     490       75       76 1
     491       75       74 ar
     492       50       48 ar
     493       76       87 1
     494      197      193 1
     495      197      196 1
     496      229      255 1
     497      229      254 1
     498      193      169 1
     499      193      194 1
     500       22        7 1
     501      198      196 1
     502      198      223 1
     503       80       74 ar
     504       80       81 2
     505       74       85 1
     506       20        8 1
     507        5       23 1
     508        5        7 1
     509        5        3 1
     510      141      152 1
     511      141      151 1
     512       45       51 1
     513       45       46 ar
     514       24        3 1
     515      196      224 1
     516      196      225 1
     517       11       10 2
     518       48       46 ar
     519       48       49 1
     520        7        8 1
     521        7       21 1
     522       60       49 1
     523        8        4 1
     524        8        9 1
     525        3        4 1
     526        3        1 1
     527       46       47 2
     528       49       62 1
     529       49       61 1
     530       10        9 ar
     531       10       12 ar
     532       26        1 1
     533        9       17 ar
     534        1       25 1
     535        1        2 1
     536       18       12 1
     537       12       13 ar
     538       17       19 1
     539       17       15 ar
     540        2       30 1
     541       13       15 ar
     542       13       14 2
     543       15       16 1
     544       16       27 1
     545       16       28 1
     546       16       29 1
